
---------- Begin Simulation Statistics ----------
final_tick                                   32856000                       # Number of ticks from beginning of simulation (restored from checkpoints and never reset)
host_inst_rate                                 202697                       # Simulator instruction rate (inst/s)
host_mem_usage                                 696804                       # Number of bytes of host memory used
host_op_rate                                   240434                       # Simulator op (including micro ops) rate (op/s)
host_seconds                                     0.06                       # Real time elapsed on the host
host_tick_rate                              577195923                       # Simulator tick rate (ticks/s)
sim_freq                                 1000000000000                       # Frequency of simulated ticks
sim_insts                                       11517                       # Number of instructions simulated
sim_ops                                         13683                       # Number of ops (including micro ops) simulated
sim_seconds                                  0.000033                       # Number of seconds simulated
sim_ticks                                    32856000                       # Number of ticks simulated
system.cpu.branchPred.BTBCorrect                    0                       # Number of correct BTB predictions (this stat may not work properly.
system.cpu.branchPred.BTBHitPct             33.298791                       # BTB Hit Percentage
system.cpu.branchPred.BTBHits                     964                       # Number of BTB hits
system.cpu.branchPred.BTBLookups                 2895                       # Number of BTB lookups
system.cpu.branchPred.RASInCorrect                  9                       # Number of incorrect RAS predictions.
system.cpu.branchPred.condIncorrect               512                       # Number of conditional branches incorrect
system.cpu.branchPred.condPredicted              2418                       # Number of conditional branches predicted
system.cpu.branchPred.indirectHits                 79                       # Number of indirect target hits.
system.cpu.branchPred.indirectLookups             222                       # Number of indirect predictor lookups.
system.cpu.branchPred.indirectMisses              143                       # Number of indirect misses.
system.cpu.branchPred.lookups                    3651                       # Number of BP lookups
system.cpu.branchPred.usedRAS                     390                       # Number of times the RAS was used to get a target.
system.cpu.branchPredindirectMispredicted           74                       # Number of mispredicted indirect branches.
system.cpu.committedInsts                       11517                       # Number of instructions committed
system.cpu.committedOps                         13683                       # Number of ops (including micro ops) committed
system.cpu.cpi                               5.705653                       # CPI: cycles per instruction
system.cpu.discardedOps                          1668                       # Number of ops (including micro ops) which were discarded before commit
system.cpu.dtb.accesses                             0                       # DTB accesses
system.cpu.dtb.align_faults                         0                       # Number of TLB faults due to alignment restrictions
system.cpu.dtb.domain_faults                        0                       # Number of TLB faults due to domain restrictions
system.cpu.dtb.flush_entries                        0                       # Number of entries that have been flushed from TLB
system.cpu.dtb.flush_tlb                            0                       # Number of times complete TLB was flushed
system.cpu.dtb.flush_tlb_asid                       0                       # Number of times TLB was flushed by ASID
system.cpu.dtb.flush_tlb_mva                        0                       # Number of times TLB was flushed by MVA
system.cpu.dtb.flush_tlb_mva_asid                   0                       # Number of times TLB was flushed by MVA & ASID
system.cpu.dtb.hits                                 0                       # DTB hits
system.cpu.dtb.inst_accesses                        0                       # ITB inst accesses
system.cpu.dtb.inst_hits                            0                       # ITB inst hits
system.cpu.dtb.inst_misses                          0                       # ITB inst misses
system.cpu.dtb.misses                               0                       # DTB misses
system.cpu.dtb.perms_faults                         0                       # Number of TLB faults due to permissions restrictions
system.cpu.dtb.prefetch_faults                      0                       # Number of TLB faults due to prefetch
system.cpu.dtb.read_accesses                        0                       # DTB read accesses
system.cpu.dtb.read_hits                            0                       # DTB read hits
system.cpu.dtb.read_misses                          0                       # DTB read misses
system.cpu.dtb.stage2_mmu.stage2_tlb.accesses            0                       # DTB accesses
system.cpu.dtb.stage2_mmu.stage2_tlb.align_faults            0                       # Number of TLB faults due to alignment restrictions
system.cpu.dtb.stage2_mmu.stage2_tlb.domain_faults            0                       # Number of TLB faults due to domain restrictions
system.cpu.dtb.stage2_mmu.stage2_tlb.flush_entries            0                       # Number of entries that have been flushed from TLB
system.cpu.dtb.stage2_mmu.stage2_tlb.flush_tlb            0                       # Number of times complete TLB was flushed
system.cpu.dtb.stage2_mmu.stage2_tlb.flush_tlb_asid            0                       # Number of times TLB was flushed by ASID
system.cpu.dtb.stage2_mmu.stage2_tlb.flush_tlb_mva            0                       # Number of times TLB was flushed by MVA
system.cpu.dtb.stage2_mmu.stage2_tlb.flush_tlb_mva_asid            0                       # Number of times TLB was flushed by MVA & ASID
system.cpu.dtb.stage2_mmu.stage2_tlb.hits            0                       # DTB hits
system.cpu.dtb.stage2_mmu.stage2_tlb.inst_accesses            0                       # ITB inst accesses
system.cpu.dtb.stage2_mmu.stage2_tlb.inst_hits            0                       # ITB inst hits
system.cpu.dtb.stage2_mmu.stage2_tlb.inst_misses            0                       # ITB inst misses
system.cpu.dtb.stage2_mmu.stage2_tlb.misses            0                       # DTB misses
system.cpu.dtb.stage2_mmu.stage2_tlb.perms_faults            0                       # Number of TLB faults due to permissions restrictions
system.cpu.dtb.stage2_mmu.stage2_tlb.prefetch_faults            0                       # Number of TLB faults due to prefetch
system.cpu.dtb.stage2_mmu.stage2_tlb.read_accesses            0                       # DTB read accesses
system.cpu.dtb.stage2_mmu.stage2_tlb.read_hits            0                       # DTB read hits
system.cpu.dtb.stage2_mmu.stage2_tlb.read_misses            0                       # DTB read misses
system.cpu.dtb.stage2_mmu.stage2_tlb.walker.walkRequestOrigin_Requested::Data            0                       # Table walker requests started/completed, data/inst
system.cpu.dtb.stage2_mmu.stage2_tlb.walker.walkRequestOrigin_Requested::Inst            0                       # Table walker requests started/completed, data/inst
system.cpu.dtb.stage2_mmu.stage2_tlb.walker.walkRequestOrigin_Requested::total            0                       # Table walker requests started/completed, data/inst
system.cpu.dtb.stage2_mmu.stage2_tlb.walker.walkRequestOrigin_Completed::Data            0                       # Table walker requests started/completed, data/inst
system.cpu.dtb.stage2_mmu.stage2_tlb.walker.walkRequestOrigin_Completed::Inst            0                       # Table walker requests started/completed, data/inst
system.cpu.dtb.stage2_mmu.stage2_tlb.walker.walkRequestOrigin_Completed::total            0                       # Table walker requests started/completed, data/inst
system.cpu.dtb.stage2_mmu.stage2_tlb.walker.walkRequestOrigin::total            0                       # Table walker requests started/completed, data/inst
system.cpu.dtb.stage2_mmu.stage2_tlb.walker.walks            0                       # Table walker walks requested
system.cpu.dtb.stage2_mmu.stage2_tlb.write_accesses            0                       # DTB write accesses
system.cpu.dtb.stage2_mmu.stage2_tlb.write_hits            0                       # DTB write hits
system.cpu.dtb.stage2_mmu.stage2_tlb.write_misses            0                       # DTB write misses
system.cpu.dtb.walker.walkRequestOrigin_Requested::Data            0                       # Table walker requests started/completed, data/inst
system.cpu.dtb.walker.walkRequestOrigin_Requested::Inst            0                       # Table walker requests started/completed, data/inst
system.cpu.dtb.walker.walkRequestOrigin_Requested::total            0                       # Table walker requests started/completed, data/inst
system.cpu.dtb.walker.walkRequestOrigin_Completed::Data            0                       # Table walker requests started/completed, data/inst
system.cpu.dtb.walker.walkRequestOrigin_Completed::Inst            0                       # Table walker requests started/completed, data/inst
system.cpu.dtb.walker.walkRequestOrigin_Completed::total            0                       # Table walker requests started/completed, data/inst
system.cpu.dtb.walker.walkRequestOrigin::total            0                       # Table walker requests started/completed, data/inst
system.cpu.dtb.walker.walks                         0                       # Table walker walks requested
system.cpu.dtb.write_accesses                       0                       # DTB write accesses
system.cpu.dtb.write_hits                           0                       # DTB write hits
system.cpu.dtb.write_misses                         0                       # DTB write misses
system.cpu.fetch2.amo_instructions                  0                       # Number of memory atomic instructions successfully decoded
system.cpu.fetch2.fp_instructions                   0                       # Number of floating point instructions successfully decoded
system.cpu.fetch2.int_instructions               9760                       # Number of integer instructions successfully decoded
system.cpu.fetch2.load_instructions              2581                       # Number of memory load instructions successfully decoded
system.cpu.fetch2.store_instructions             1777                       # Number of memory store instructions successfully decoded
system.cpu.fetch2.vec_instructions                  0                       # Number of SIMD instructions successfully decoded
system.cpu.idleCycles                           44550                       # Total number of cycles that the object has spent stopped
system.cpu.ipc                               0.175265                       # IPC: instructions per cycle
system.cpu.itb.accesses                             0                       # DTB accesses
system.cpu.itb.align_faults                         0                       # Number of TLB faults due to alignment restrictions
system.cpu.itb.domain_faults                        0                       # Number of TLB faults due to domain restrictions
system.cpu.itb.flush_entries                        0                       # Number of entries that have been flushed from TLB
system.cpu.itb.flush_tlb                            0                       # Number of times complete TLB was flushed
system.cpu.itb.flush_tlb_asid                       0                       # Number of times TLB was flushed by ASID
system.cpu.itb.flush_tlb_mva                        0                       # Number of times TLB was flushed by MVA
system.cpu.itb.flush_tlb_mva_asid                   0                       # Number of times TLB was flushed by MVA & ASID
system.cpu.itb.hits                                 0                       # DTB hits
system.cpu.itb.inst_accesses                        0                       # ITB inst accesses
system.cpu.itb.inst_hits                            0                       # ITB inst hits
system.cpu.itb.inst_misses                          0                       # ITB inst misses
system.cpu.itb.misses                               0                       # DTB misses
system.cpu.itb.perms_faults                         0                       # Number of TLB faults due to permissions restrictions
system.cpu.itb.prefetch_faults                      0                       # Number of TLB faults due to prefetch
system.cpu.itb.read_accesses                        0                       # DTB read accesses
system.cpu.itb.read_hits                            0                       # DTB read hits
system.cpu.itb.read_misses                          0                       # DTB read misses
system.cpu.itb.stage2_mmu.stage2_tlb.accesses            0                       # DTB accesses
system.cpu.itb.stage2_mmu.stage2_tlb.align_faults            0                       # Number of TLB faults due to alignment restrictions
system.cpu.itb.stage2_mmu.stage2_tlb.domain_faults            0                       # Number of TLB faults due to domain restrictions
system.cpu.itb.stage2_mmu.stage2_tlb.flush_entries            0                       # Number of entries that have been flushed from TLB
system.cpu.itb.stage2_mmu.stage2_tlb.flush_tlb            0                       # Number of times complete TLB was flushed
system.cpu.itb.stage2_mmu.stage2_tlb.flush_tlb_asid            0                       # Number of times TLB was flushed by ASID
system.cpu.itb.stage2_mmu.stage2_tlb.flush_tlb_mva            0                       # Number of times TLB was flushed by MVA
system.cpu.itb.stage2_mmu.stage2_tlb.flush_tlb_mva_asid            0                       # Number of times TLB was flushed by MVA & ASID
system.cpu.itb.stage2_mmu.stage2_tlb.hits            0                       # DTB hits
system.cpu.itb.stage2_mmu.stage2_tlb.inst_accesses            0                       # ITB inst accesses
system.cpu.itb.stage2_mmu.stage2_tlb.inst_hits            0                       # ITB inst hits
system.cpu.itb.stage2_mmu.stage2_tlb.inst_misses            0                       # ITB inst misses
system.cpu.itb.stage2_mmu.stage2_tlb.misses            0                       # DTB misses
system.cpu.itb.stage2_mmu.stage2_tlb.perms_faults            0                       # Number of TLB faults due to permissions restrictions
system.cpu.itb.stage2_mmu.stage2_tlb.prefetch_faults            0                       # Number of TLB faults due to prefetch
system.cpu.itb.stage2_mmu.stage2_tlb.read_accesses            0                       # DTB read accesses
system.cpu.itb.stage2_mmu.stage2_tlb.read_hits            0                       # DTB read hits
system.cpu.itb.stage2_mmu.stage2_tlb.read_misses            0                       # DTB read misses
system.cpu.itb.stage2_mmu.stage2_tlb.walker.walkRequestOrigin_Requested::Data            0                       # Table walker requests started/completed, data/inst
system.cpu.itb.stage2_mmu.stage2_tlb.walker.walkRequestOrigin_Requested::Inst            0                       # Table walker requests started/completed, data/inst
system.cpu.itb.stage2_mmu.stage2_tlb.walker.walkRequestOrigin_Requested::total            0                       # Table walker requests started/completed, data/inst
system.cpu.itb.stage2_mmu.stage2_tlb.walker.walkRequestOrigin_Completed::Data            0                       # Table walker requests started/completed, data/inst
system.cpu.itb.stage2_mmu.stage2_tlb.walker.walkRequestOrigin_Completed::Inst            0                       # Table walker requests started/completed, data/inst
system.cpu.itb.stage2_mmu.stage2_tlb.walker.walkRequestOrigin_Completed::total            0                       # Table walker requests started/completed, data/inst
system.cpu.itb.stage2_mmu.stage2_tlb.walker.walkRequestOrigin::total            0                       # Table walker requests started/completed, data/inst
system.cpu.itb.stage2_mmu.stage2_tlb.walker.walks            0                       # Table walker walks requested
system.cpu.itb.stage2_mmu.stage2_tlb.write_accesses            0                       # DTB write accesses
system.cpu.itb.stage2_mmu.stage2_tlb.write_hits            0                       # DTB write hits
system.cpu.itb.stage2_mmu.stage2_tlb.write_misses            0                       # DTB write misses
system.cpu.itb.walker.walkRequestOrigin_Requested::Data            0                       # Table walker requests started/completed, data/inst
system.cpu.itb.walker.walkRequestOrigin_Requested::Inst            0                       # Table walker requests started/completed, data/inst
system.cpu.itb.walker.walkRequestOrigin_Requested::total            0                       # Table walker requests started/completed, data/inst
system.cpu.itb.walker.walkRequestOrigin_Completed::Data            0                       # Table walker requests started/completed, data/inst
system.cpu.itb.walker.walkRequestOrigin_Completed::Inst            0                       # Table walker requests started/completed, data/inst
system.cpu.itb.walker.walkRequestOrigin_Completed::total            0                       # Table walker requests started/completed, data/inst
system.cpu.itb.walker.walkRequestOrigin::total            0                       # Table walker requests started/completed, data/inst
system.cpu.itb.walker.walks                         0                       # Table walker walks requested
system.cpu.itb.write_accesses                       0                       # DTB write accesses
system.cpu.itb.write_hits                           0                       # DTB write hits
system.cpu.itb.write_misses                         0                       # DTB write misses
system.cpu.numCycles                            65712                       # number of cpu cycles simulated
system.cpu.numFetchSuspends                         0                       # Number of times Execute suspended instruction fetching
system.cpu.numWorkItemsCompleted                    0                       # number of work items this cpu completed
system.cpu.numWorkItemsStarted                      0                       # number of work items this cpu started
system.cpu.op_class_0::No_OpClass                   0      0.00%      0.00% # Class of committed instruction
system.cpu.op_class_0::IntAlu                    8881     64.91%     64.91% # Class of committed instruction
system.cpu.op_class_0::IntMult                     37      0.27%     65.18% # Class of committed instruction
system.cpu.op_class_0::IntDiv                       0      0.00%     65.18% # Class of committed instruction
system.cpu.op_class_0::FloatAdd                     0      0.00%     65.18% # Class of committed instruction
system.cpu.op_class_0::FloatCmp                     0      0.00%     65.18% # Class of committed instruction
system.cpu.op_class_0::FloatCvt                     0      0.00%     65.18% # Class of committed instruction
system.cpu.op_class_0::FloatMult                    0      0.00%     65.18% # Class of committed instruction
system.cpu.op_class_0::FloatMultAcc                 0      0.00%     65.18% # Class of committed instruction
system.cpu.op_class_0::FloatDiv                     0      0.00%     65.18% # Class of committed instruction
system.cpu.op_class_0::FloatMisc                    0      0.00%     65.18% # Class of committed instruction
system.cpu.op_class_0::FloatSqrt                    0      0.00%     65.18% # Class of committed instruction
system.cpu.op_class_0::SimdAdd                      0      0.00%     65.18% # Class of committed instruction
system.cpu.op_class_0::SimdAddAcc                   0      0.00%     65.18% # Class of committed instruction
system.cpu.op_class_0::SimdAlu                      0      0.00%     65.18% # Class of committed instruction
system.cpu.op_class_0::SimdCmp                      0      0.00%     65.18% # Class of committed instruction
system.cpu.op_class_0::SimdCvt                      0      0.00%     65.18% # Class of committed instruction
system.cpu.op_class_0::SimdMisc                     0      0.00%     65.18% # Class of committed instruction
system.cpu.op_class_0::SimdMult                     0      0.00%     65.18% # Class of committed instruction
system.cpu.op_class_0::SimdMultAcc                  0      0.00%     65.18% # Class of committed instruction
system.cpu.op_class_0::SimdShift                    0      0.00%     65.18% # Class of committed instruction
system.cpu.op_class_0::SimdShiftAcc                 0      0.00%     65.18% # Class of committed instruction
system.cpu.op_class_0::SimdDiv                      0      0.00%     65.18% # Class of committed instruction
system.cpu.op_class_0::SimdSqrt                     0      0.00%     65.18% # Class of committed instruction
system.cpu.op_class_0::SimdFloatAdd                 0      0.00%     65.18% # Class of committed instruction
system.cpu.op_class_0::SimdFloatAlu                 0      0.00%     65.18% # Class of committed instruction
system.cpu.op_class_0::SimdFloatCmp                 0      0.00%     65.18% # Class of committed instruction
system.cpu.op_class_0::SimdFloatCvt                 0      0.00%     65.18% # Class of committed instruction
system.cpu.op_class_0::SimdFloatDiv                 0      0.00%     65.18% # Class of committed instruction
system.cpu.op_class_0::SimdFloatMisc                0      0.00%     65.18% # Class of committed instruction
system.cpu.op_class_0::SimdFloatMult                0      0.00%     65.18% # Class of committed instruction
system.cpu.op_class_0::SimdFloatMultAcc             0      0.00%     65.18% # Class of committed instruction
system.cpu.op_class_0::SimdFloatSqrt                0      0.00%     65.18% # Class of committed instruction
system.cpu.op_class_0::SimdReduceAdd                0      0.00%     65.18% # Class of committed instruction
system.cpu.op_class_0::SimdReduceAlu                0      0.00%     65.18% # Class of committed instruction
system.cpu.op_class_0::SimdReduceCmp                0      0.00%     65.18% # Class of committed instruction
system.cpu.op_class_0::SimdFloatReduceAdd            0      0.00%     65.18% # Class of committed instruction
system.cpu.op_class_0::SimdFloatReduceCmp            0      0.00%     65.18% # Class of committed instruction
system.cpu.op_class_0::SimdAes                      0      0.00%     65.18% # Class of committed instruction
system.cpu.op_class_0::SimdAesMix                   0      0.00%     65.18% # Class of committed instruction
system.cpu.op_class_0::SimdSha1Hash                 0      0.00%     65.18% # Class of committed instruction
system.cpu.op_class_0::SimdSha1Hash2                0      0.00%     65.18% # Class of committed instruction
system.cpu.op_class_0::SimdSha256Hash               0      0.00%     65.18% # Class of committed instruction
system.cpu.op_class_0::SimdSha256Hash2              0      0.00%     65.18% # Class of committed instruction
system.cpu.op_class_0::SimdShaSigma2                0      0.00%     65.18% # Class of committed instruction
system.cpu.op_class_0::SimdShaSigma3                0      0.00%     65.18% # Class of committed instruction
system.cpu.op_class_0::SimdPredAlu                  0      0.00%     65.18% # Class of committed instruction
system.cpu.op_class_0::MemRead                   2334     17.06%     82.23% # Class of committed instruction
system.cpu.op_class_0::MemWrite                  2431     17.77%    100.00% # Class of committed instruction
system.cpu.op_class_0::FloatMemRead                 0      0.00%    100.00% # Class of committed instruction
system.cpu.op_class_0::FloatMemWrite                0      0.00%    100.00% # Class of committed instruction
system.cpu.op_class_0::IprAccess                    0      0.00%    100.00% # Class of committed instruction
system.cpu.op_class_0::InstPrefetch                 0      0.00%    100.00% # Class of committed instruction
system.cpu.op_class_0::total                    13683                       # Class of committed instruction
system.cpu.tickCycles                           21162                       # Number of cycles that the object actually ticked
system.cpu.workload.numSyscalls                    20                       # Number of system calls
system.membus.snoop_filter.hit_multi_requests            3                       # Number of requests hitting in the snoop filter with multiple (>1) holders of the requested data.
system.membus.snoop_filter.hit_multi_snoops            0                       # Number of snoops hitting in the snoop filter with multiple (>1) holders of the requested data.
system.membus.snoop_filter.hit_single_requests           71                       # Number of requests hitting in the snoop filter with a single holder of the requested data.
system.membus.snoop_filter.hit_single_snoops            0                       # Number of snoops hitting in the snoop filter with a single holder of the requested data.
system.membus.snoop_filter.tot_requests           570                       # Total number of requests made to the snoop filter.
system.membus.snoop_filter.tot_snoops               0                       # Total number of snoops made to the snoop filter.
system.membus.pwrStateResidencyTicks::UNDEFINED     32856000                       # Cumulative time (in ticks) in various power states
system.membus.trans_dist::ReadResp                457                       # Transaction distribution
system.membus.trans_dist::WritebackClean           55                       # Transaction distribution
system.membus.trans_dist::ReadExReq                58                       # Transaction distribution
system.membus.trans_dist::ReadExResp               58                       # Transaction distribution
system.membus.trans_dist::ReadCleanReq            379                       # Transaction distribution
system.membus.trans_dist::ReadSharedReq            78                       # Transaction distribution
system.membus.pkt_count_system.cpu.icache.mem_side::system.mem_ctrls.port          813                       # Packet count per connected master and slave (bytes)
system.membus.pkt_count_system.cpu.dcache.mem_side::system.mem_ctrls.port          272                       # Packet count per connected master and slave (bytes)
system.membus.pkt_count::total                   1085                       # Packet count per connected master and slave (bytes)
system.membus.pkt_size_system.cpu.icache.mem_side::system.mem_ctrls.port        27776                       # Cumulative packet size per connected master and slave (bytes)
system.membus.pkt_size_system.cpu.dcache.mem_side::system.mem_ctrls.port         8704                       # Cumulative packet size per connected master and slave (bytes)
system.membus.pkt_size::total                   36480                       # Cumulative packet size per connected master and slave (bytes)
system.membus.snoops                                0                       # Total snoops (count)
system.membus.snoopTraffic                          0                       # Total snoop traffic (bytes)
system.membus.snoop_fanout::samples               515                       # Request fanout histogram
system.membus.snoop_fanout::mean             0.036893                       # Request fanout histogram
system.membus.snoop_fanout::stdev            0.188683                       # Request fanout histogram
system.membus.snoop_fanout::underflows              0      0.00%      0.00% # Request fanout histogram
system.membus.snoop_fanout::0                     496     96.31%     96.31% # Request fanout histogram
system.membus.snoop_fanout::1                      19      3.69%    100.00% # Request fanout histogram
system.membus.snoop_fanout::2                       0      0.00%    100.00% # Request fanout histogram
system.membus.snoop_fanout::overflows               0      0.00%    100.00% # Request fanout histogram
system.membus.snoop_fanout::min_value               0                       # Request fanout histogram
system.membus.snoop_fanout::max_value               1                       # Request fanout histogram
system.membus.snoop_fanout::total                 515                       # Request fanout histogram
system.membus.reqLayer0.occupancy              865000                       # Layer occupancy (ticks)
system.membus.reqLayer0.utilization               2.6                       # Layer utilization (%)
system.membus.respLayer1.occupancy            2062836                       # Layer occupancy (ticks)
system.membus.respLayer1.utilization              6.3                       # Layer utilization (%)
system.membus.respLayer2.occupancy             730216                       # Layer occupancy (ticks)
system.membus.respLayer2.utilization              2.2                       # Layer utilization (%)
system.voltage_domain.voltage                       1                       # Voltage in Volts
system.clk_domain.clock                          1000                       # Clock period in ticks
system.cpu_voltage_domain.voltage                   1                       # Voltage in Volts
system.mem_ctrls.pwrStateResidencyTicks::UNDEFINED     32856000                       # Cumulative time (in ticks) in various power states
system.mem_ctrls.bytes_read::.cpu.inst          24256                       # Number of bytes read from this memory
system.mem_ctrls.bytes_read::.cpu.data           8704                       # Number of bytes read from this memory
system.mem_ctrls.bytes_read::total              32960                       # Number of bytes read from this memory
system.mem_ctrls.bytes_inst_read::.cpu.inst        24256                       # Number of instructions bytes read from this memory
system.mem_ctrls.bytes_inst_read::total         24256                       # Number of instructions bytes read from this memory
system.mem_ctrls.num_reads::.cpu.inst             379                       # Number of read requests responded to by this memory
system.mem_ctrls.num_reads::.cpu.data             136                       # Number of read requests responded to by this memory
system.mem_ctrls.num_reads::total                 515                       # Number of read requests responded to by this memory
system.mem_ctrls.bw_read::.cpu.inst         738251765                       # Total read bandwidth from this memory (bytes/s)
system.mem_ctrls.bw_read::.cpu.data         264913562                       # Total read bandwidth from this memory (bytes/s)
system.mem_ctrls.bw_read::total            1003165327                       # Total read bandwidth from this memory (bytes/s)
system.mem_ctrls.bw_inst_read::.cpu.inst    738251765                       # Instruction read bandwidth from this memory (bytes/s)
system.mem_ctrls.bw_inst_read::total        738251765                       # Instruction read bandwidth from this memory (bytes/s)
system.mem_ctrls.bw_total::.cpu.inst        738251765                       # Total bandwidth to/from this memory (bytes/s)
system.mem_ctrls.bw_total::.cpu.data        264913562                       # Total bandwidth to/from this memory (bytes/s)
system.mem_ctrls.bw_total::total           1003165327                       # Total bandwidth to/from this memory (bytes/s)
system.mem_ctrls.avgPriority_.writebacks::samples        51.00                       # Average QoS priority value for accepted requests
system.mem_ctrls.avgPriority_.cpu.inst::samples       366.00                       # Average QoS priority value for accepted requests
system.mem_ctrls.avgPriority_.cpu.data::samples       135.00                       # Average QoS priority value for accepted requests
system.mem_ctrls.priorityMinLatency      0.000000017492                       # per QoS priority minimum request to response latency (s)
system.mem_ctrls.priorityMaxLatency      0.000000754692                       # per QoS priority maximum request to response latency (s)
system.mem_ctrls.numReadWriteTurnArounds            0                       # Number of turnarounds from READ to WRITE
system.mem_ctrls.numWriteReadTurnArounds            0                       # Number of turnarounds from WRITE to READ
system.mem_ctrls.numStayReadState                1054                       # Number of times bus staying in READ state
system.mem_ctrls.numStayWriteState                  0                       # Number of times bus staying in WRITE state
system.mem_ctrls.readReqs                         515                       # Number of read requests accepted
system.mem_ctrls.writeReqs                         52                       # Number of write requests accepted
system.mem_ctrls.readBursts                       515                       # Number of DRAM read bursts, including those serviced by the write queue
system.mem_ctrls.writeBursts                       52                       # Number of DRAM write bursts, including those merged in the write queue
system.mem_ctrls.servicedByWrQ                     14                       # Number of DRAM read bursts serviced by the write queue
system.mem_ctrls.mergedWrBursts                     1                       # Number of DRAM write bursts merged with an existing one
system.mem_ctrls.neitherReadNorWriteReqs            0                       # Number of requests that are neither read nor write
system.mem_ctrls.perBankRdBursts::0                69                       # Per bank write bursts
system.mem_ctrls.perBankRdBursts::1                62                       # Per bank write bursts
system.mem_ctrls.perBankRdBursts::2                26                       # Per bank write bursts
system.mem_ctrls.perBankRdBursts::3                46                       # Per bank write bursts
system.mem_ctrls.perBankRdBursts::4                68                       # Per bank write bursts
system.mem_ctrls.perBankRdBursts::5               106                       # Per bank write bursts
system.mem_ctrls.perBankRdBursts::6                72                       # Per bank write bursts
system.mem_ctrls.perBankRdBursts::7                52                       # Per bank write bursts
system.mem_ctrls.perBankWrBursts::0                 0                       # Per bank write bursts
system.mem_ctrls.perBankWrBursts::1                 0                       # Per bank write bursts
system.mem_ctrls.perBankWrBursts::2                 0                       # Per bank write bursts
system.mem_ctrls.perBankWrBursts::3                 0                       # Per bank write bursts
system.mem_ctrls.perBankWrBursts::4                 0                       # Per bank write bursts
system.mem_ctrls.perBankWrBursts::5                 0                       # Per bank write bursts
system.mem_ctrls.perBankWrBursts::6                 0                       # Per bank write bursts
system.mem_ctrls.perBankWrBursts::7                 0                       # Per bank write bursts
system.mem_ctrls.avgRdQLen                       1.17                       # Average read queue length when enqueuing
system.mem_ctrls.avgWrQLen                      14.06                       # Average write queue length when enqueuing
system.mem_ctrls.totQLat                      4682012                       # Total ticks spent queuing
system.mem_ctrls.totBusLat                    1669332                       # Total ticks spent in databus transfers
system.mem_ctrls.totMemAccLat                13445504                       # Total ticks spent from burst creation until serviced by the DRAM
system.mem_ctrls.avgQLat                      9345.33                       # Average queueing delay per DRAM burst
system.mem_ctrls.avgBusLat                    3332.00                       # Average bus latency per DRAM burst
system.mem_ctrls.avgMemAccLat                26837.33                       # Average memory access latency per DRAM burst
system.mem_ctrls.numRdRetry                         0                       # Number of times read queue was full causing retry
system.mem_ctrls.numWrRetry                         0                       # Number of times write queue was full causing retry
system.mem_ctrls.readRowHits                      388                       # Number of row buffer hits during reads
system.mem_ctrls.writeRowHits                       0                       # Number of row buffer hits during writes
system.mem_ctrls.readRowHitRate                 77.45                       # Row buffer hit rate for reads
system.mem_ctrls.writeRowHitRate                 0.00                       # Row buffer hit rate for writes
system.mem_ctrls.readPktSize::0                     0                       # Read request sizes (log2)
system.mem_ctrls.readPktSize::1                     0                       # Read request sizes (log2)
system.mem_ctrls.readPktSize::2                     0                       # Read request sizes (log2)
system.mem_ctrls.readPktSize::3                     0                       # Read request sizes (log2)
system.mem_ctrls.readPktSize::4                     0                       # Read request sizes (log2)
system.mem_ctrls.readPktSize::5                     0                       # Read request sizes (log2)
system.mem_ctrls.readPktSize::6                   515                       # Read request sizes (log2)
system.mem_ctrls.writePktSize::0                    0                       # Write request sizes (log2)
system.mem_ctrls.writePktSize::1                    0                       # Write request sizes (log2)
system.mem_ctrls.writePktSize::2                    0                       # Write request sizes (log2)
system.mem_ctrls.writePktSize::3                    0                       # Write request sizes (log2)
system.mem_ctrls.writePktSize::4                    0                       # Write request sizes (log2)
system.mem_ctrls.writePktSize::5                    0                       # Write request sizes (log2)
system.mem_ctrls.writePktSize::6                   52                       # Write request sizes (log2)
system.mem_ctrls.rdQLenPdf::0                     417                       # What read queue length does an incoming req see
system.mem_ctrls.rdQLenPdf::1                      76                       # What read queue length does an incoming req see
system.mem_ctrls.rdQLenPdf::2                       8                       # What read queue length does an incoming req see
system.mem_ctrls.rdQLenPdf::3                       0                       # What read queue length does an incoming req see
system.mem_ctrls.rdQLenPdf::4                       0                       # What read queue length does an incoming req see
system.mem_ctrls.rdQLenPdf::5                       0                       # What read queue length does an incoming req see
system.mem_ctrls.rdQLenPdf::6                       0                       # What read queue length does an incoming req see
system.mem_ctrls.rdQLenPdf::7                       0                       # What read queue length does an incoming req see
system.mem_ctrls.rdQLenPdf::8                       0                       # What read queue length does an incoming req see
system.mem_ctrls.rdQLenPdf::9                       0                       # What read queue length does an incoming req see
system.mem_ctrls.rdQLenPdf::10                      0                       # What read queue length does an incoming req see
system.mem_ctrls.rdQLenPdf::11                      0                       # What read queue length does an incoming req see
system.mem_ctrls.rdQLenPdf::12                      0                       # What read queue length does an incoming req see
system.mem_ctrls.rdQLenPdf::13                      0                       # What read queue length does an incoming req see
system.mem_ctrls.rdQLenPdf::14                      0                       # What read queue length does an incoming req see
system.mem_ctrls.rdQLenPdf::15                      0                       # What read queue length does an incoming req see
system.mem_ctrls.rdQLenPdf::16                      0                       # What read queue length does an incoming req see
system.mem_ctrls.rdQLenPdf::17                      0                       # What read queue length does an incoming req see
system.mem_ctrls.rdQLenPdf::18                      0                       # What read queue length does an incoming req see
system.mem_ctrls.rdQLenPdf::19                      0                       # What read queue length does an incoming req see
system.mem_ctrls.rdQLenPdf::20                      0                       # What read queue length does an incoming req see
system.mem_ctrls.rdQLenPdf::21                      0                       # What read queue length does an incoming req see
system.mem_ctrls.rdQLenPdf::22                      0                       # What read queue length does an incoming req see
system.mem_ctrls.rdQLenPdf::23                      0                       # What read queue length does an incoming req see
system.mem_ctrls.rdQLenPdf::24                      0                       # What read queue length does an incoming req see
system.mem_ctrls.rdQLenPdf::25                      0                       # What read queue length does an incoming req see
system.mem_ctrls.rdQLenPdf::26                      0                       # What read queue length does an incoming req see
system.mem_ctrls.rdQLenPdf::27                      0                       # What read queue length does an incoming req see
system.mem_ctrls.rdQLenPdf::28                      0                       # What read queue length does an incoming req see
system.mem_ctrls.rdQLenPdf::29                      0                       # What read queue length does an incoming req see
system.mem_ctrls.rdQLenPdf::30                      0                       # What read queue length does an incoming req see
system.mem_ctrls.rdQLenPdf::31                      0                       # What read queue length does an incoming req see
system.mem_ctrls.rdQLenPdf::32                      0                       # What read queue length does an incoming req see
system.mem_ctrls.rdQLenPdf::33                      0                       # What read queue length does an incoming req see
system.mem_ctrls.rdQLenPdf::34                      0                       # What read queue length does an incoming req see
system.mem_ctrls.rdQLenPdf::35                      0                       # What read queue length does an incoming req see
system.mem_ctrls.rdQLenPdf::36                      0                       # What read queue length does an incoming req see
system.mem_ctrls.rdQLenPdf::37                      0                       # What read queue length does an incoming req see
system.mem_ctrls.rdQLenPdf::38                      0                       # What read queue length does an incoming req see
system.mem_ctrls.rdQLenPdf::39                      0                       # What read queue length does an incoming req see
system.mem_ctrls.rdQLenPdf::40                      0                       # What read queue length does an incoming req see
system.mem_ctrls.rdQLenPdf::41                      0                       # What read queue length does an incoming req see
system.mem_ctrls.rdQLenPdf::42                      0                       # What read queue length does an incoming req see
system.mem_ctrls.rdQLenPdf::43                      0                       # What read queue length does an incoming req see
system.mem_ctrls.rdQLenPdf::44                      0                       # What read queue length does an incoming req see
system.mem_ctrls.rdQLenPdf::45                      0                       # What read queue length does an incoming req see
system.mem_ctrls.rdQLenPdf::46                      0                       # What read queue length does an incoming req see
system.mem_ctrls.rdQLenPdf::47                      0                       # What read queue length does an incoming req see
system.mem_ctrls.rdQLenPdf::48                      0                       # What read queue length does an incoming req see
system.mem_ctrls.rdQLenPdf::49                      0                       # What read queue length does an incoming req see
system.mem_ctrls.rdQLenPdf::50                      0                       # What read queue length does an incoming req see
system.mem_ctrls.rdQLenPdf::51                      0                       # What read queue length does an incoming req see
system.mem_ctrls.rdQLenPdf::52                      0                       # What read queue length does an incoming req see
system.mem_ctrls.rdQLenPdf::53                      0                       # What read queue length does an incoming req see
system.mem_ctrls.rdQLenPdf::54                      0                       # What read queue length does an incoming req see
system.mem_ctrls.rdQLenPdf::55                      0                       # What read queue length does an incoming req see
system.mem_ctrls.rdQLenPdf::56                      0                       # What read queue length does an incoming req see
system.mem_ctrls.rdQLenPdf::57                      0                       # What read queue length does an incoming req see
system.mem_ctrls.rdQLenPdf::58                      0                       # What read queue length does an incoming req see
system.mem_ctrls.rdQLenPdf::59                      0                       # What read queue length does an incoming req see
system.mem_ctrls.rdQLenPdf::60                      0                       # What read queue length does an incoming req see
system.mem_ctrls.rdQLenPdf::61                      0                       # What read queue length does an incoming req see
system.mem_ctrls.rdQLenPdf::62                      0                       # What read queue length does an incoming req see
system.mem_ctrls.rdQLenPdf::63                      0                       # What read queue length does an incoming req see
system.mem_ctrls.wrQLenPdf::0                       1                       # What write queue length does an incoming req see
system.mem_ctrls.wrQLenPdf::1                       1                       # What write queue length does an incoming req see
system.mem_ctrls.wrQLenPdf::2                       1                       # What write queue length does an incoming req see
system.mem_ctrls.wrQLenPdf::3                       1                       # What write queue length does an incoming req see
system.mem_ctrls.wrQLenPdf::4                       1                       # What write queue length does an incoming req see
system.mem_ctrls.wrQLenPdf::5                       1                       # What write queue length does an incoming req see
system.mem_ctrls.wrQLenPdf::6                       1                       # What write queue length does an incoming req see
system.mem_ctrls.wrQLenPdf::7                       1                       # What write queue length does an incoming req see
system.mem_ctrls.wrQLenPdf::8                       1                       # What write queue length does an incoming req see
system.mem_ctrls.wrQLenPdf::9                       1                       # What write queue length does an incoming req see
system.mem_ctrls.wrQLenPdf::10                      1                       # What write queue length does an incoming req see
system.mem_ctrls.wrQLenPdf::11                      1                       # What write queue length does an incoming req see
system.mem_ctrls.wrQLenPdf::12                      1                       # What write queue length does an incoming req see
system.mem_ctrls.wrQLenPdf::13                      1                       # What write queue length does an incoming req see
system.mem_ctrls.wrQLenPdf::14                      1                       # What write queue length does an incoming req see
system.mem_ctrls.wrQLenPdf::15                      1                       # What write queue length does an incoming req see
system.mem_ctrls.wrQLenPdf::16                      1                       # What write queue length does an incoming req see
system.mem_ctrls.wrQLenPdf::17                      1                       # What write queue length does an incoming req see
system.mem_ctrls.wrQLenPdf::18                      1                       # What write queue length does an incoming req see
system.mem_ctrls.wrQLenPdf::19                      1                       # What write queue length does an incoming req see
system.mem_ctrls.wrQLenPdf::20                      1                       # What write queue length does an incoming req see
system.mem_ctrls.wrQLenPdf::21                      1                       # What write queue length does an incoming req see
system.mem_ctrls.wrQLenPdf::22                      1                       # What write queue length does an incoming req see
system.mem_ctrls.wrQLenPdf::23                      1                       # What write queue length does an incoming req see
system.mem_ctrls.wrQLenPdf::24                      1                       # What write queue length does an incoming req see
system.mem_ctrls.wrQLenPdf::25                      1                       # What write queue length does an incoming req see
system.mem_ctrls.wrQLenPdf::26                      1                       # What write queue length does an incoming req see
system.mem_ctrls.wrQLenPdf::27                      1                       # What write queue length does an incoming req see
system.mem_ctrls.wrQLenPdf::28                      1                       # What write queue length does an incoming req see
system.mem_ctrls.wrQLenPdf::29                      1                       # What write queue length does an incoming req see
system.mem_ctrls.wrQLenPdf::30                      1                       # What write queue length does an incoming req see
system.mem_ctrls.wrQLenPdf::31                      1                       # What write queue length does an incoming req see
system.mem_ctrls.wrQLenPdf::32                      1                       # What write queue length does an incoming req see
system.mem_ctrls.wrQLenPdf::33                      1                       # What write queue length does an incoming req see
system.mem_ctrls.wrQLenPdf::34                      1                       # What write queue length does an incoming req see
system.mem_ctrls.wrQLenPdf::35                      1                       # What write queue length does an incoming req see
system.mem_ctrls.wrQLenPdf::36                      1                       # What write queue length does an incoming req see
system.mem_ctrls.wrQLenPdf::37                      1                       # What write queue length does an incoming req see
system.mem_ctrls.wrQLenPdf::38                      1                       # What write queue length does an incoming req see
system.mem_ctrls.wrQLenPdf::39                      1                       # What write queue length does an incoming req see
system.mem_ctrls.wrQLenPdf::40                      1                       # What write queue length does an incoming req see
system.mem_ctrls.wrQLenPdf::41                      1                       # What write queue length does an incoming req see
system.mem_ctrls.wrQLenPdf::42                      1                       # What write queue length does an incoming req see
system.mem_ctrls.wrQLenPdf::43                      1                       # What write queue length does an incoming req see
system.mem_ctrls.wrQLenPdf::44                      1                       # What write queue length does an incoming req see
system.mem_ctrls.wrQLenPdf::45                      1                       # What write queue length does an incoming req see
system.mem_ctrls.wrQLenPdf::46                      1                       # What write queue length does an incoming req see
system.mem_ctrls.wrQLenPdf::47                      1                       # What write queue length does an incoming req see
system.mem_ctrls.wrQLenPdf::48                      1                       # What write queue length does an incoming req see
system.mem_ctrls.wrQLenPdf::49                      1                       # What write queue length does an incoming req see
system.mem_ctrls.wrQLenPdf::50                      1                       # What write queue length does an incoming req see
system.mem_ctrls.wrQLenPdf::51                      0                       # What write queue length does an incoming req see
system.mem_ctrls.wrQLenPdf::52                      0                       # What write queue length does an incoming req see
system.mem_ctrls.wrQLenPdf::53                      0                       # What write queue length does an incoming req see
system.mem_ctrls.wrQLenPdf::54                      0                       # What write queue length does an incoming req see
system.mem_ctrls.wrQLenPdf::55                      0                       # What write queue length does an incoming req see
system.mem_ctrls.wrQLenPdf::56                      0                       # What write queue length does an incoming req see
system.mem_ctrls.wrQLenPdf::57                      0                       # What write queue length does an incoming req see
system.mem_ctrls.wrQLenPdf::58                      0                       # What write queue length does an incoming req see
system.mem_ctrls.wrQLenPdf::59                      0                       # What write queue length does an incoming req see
system.mem_ctrls.wrQLenPdf::60                      0                       # What write queue length does an incoming req see
system.mem_ctrls.wrQLenPdf::61                      0                       # What write queue length does an incoming req see
system.mem_ctrls.wrQLenPdf::62                      0                       # What write queue length does an incoming req see
system.mem_ctrls.wrQLenPdf::63                      0                       # What write queue length does an incoming req see
system.mem_ctrls.wrQLenPdf::64                      0                       # What write queue length does an incoming req see
system.mem_ctrls.wrQLenPdf::65                      0                       # What write queue length does an incoming req see
system.mem_ctrls.wrQLenPdf::66                      0                       # What write queue length does an incoming req see
system.mem_ctrls.wrQLenPdf::67                      0                       # What write queue length does an incoming req see
system.mem_ctrls.wrQLenPdf::68                      0                       # What write queue length does an incoming req see
system.mem_ctrls.wrQLenPdf::69                      0                       # What write queue length does an incoming req see
system.mem_ctrls.wrQLenPdf::70                      0                       # What write queue length does an incoming req see
system.mem_ctrls.wrQLenPdf::71                      0                       # What write queue length does an incoming req see
system.mem_ctrls.wrQLenPdf::72                      0                       # What write queue length does an incoming req see
system.mem_ctrls.wrQLenPdf::73                      0                       # What write queue length does an incoming req see
system.mem_ctrls.wrQLenPdf::74                      0                       # What write queue length does an incoming req see
system.mem_ctrls.wrQLenPdf::75                      0                       # What write queue length does an incoming req see
system.mem_ctrls.wrQLenPdf::76                      0                       # What write queue length does an incoming req see
system.mem_ctrls.wrQLenPdf::77                      0                       # What write queue length does an incoming req see
system.mem_ctrls.wrQLenPdf::78                      0                       # What write queue length does an incoming req see
system.mem_ctrls.wrQLenPdf::79                      0                       # What write queue length does an incoming req see
system.mem_ctrls.wrQLenPdf::80                      0                       # What write queue length does an incoming req see
system.mem_ctrls.wrQLenPdf::81                      0                       # What write queue length does an incoming req see
system.mem_ctrls.wrQLenPdf::82                      0                       # What write queue length does an incoming req see
system.mem_ctrls.wrQLenPdf::83                      0                       # What write queue length does an incoming req see
system.mem_ctrls.wrQLenPdf::84                      0                       # What write queue length does an incoming req see
system.mem_ctrls.wrQLenPdf::85                      0                       # What write queue length does an incoming req see
system.mem_ctrls.wrQLenPdf::86                      0                       # What write queue length does an incoming req see
system.mem_ctrls.wrQLenPdf::87                      0                       # What write queue length does an incoming req see
system.mem_ctrls.wrQLenPdf::88                      0                       # What write queue length does an incoming req see
system.mem_ctrls.wrQLenPdf::89                      0                       # What write queue length does an incoming req see
system.mem_ctrls.wrQLenPdf::90                      0                       # What write queue length does an incoming req see
system.mem_ctrls.wrQLenPdf::91                      0                       # What write queue length does an incoming req see
system.mem_ctrls.wrQLenPdf::92                      0                       # What write queue length does an incoming req see
system.mem_ctrls.wrQLenPdf::93                      0                       # What write queue length does an incoming req see
system.mem_ctrls.wrQLenPdf::94                      0                       # What write queue length does an incoming req see
system.mem_ctrls.wrQLenPdf::95                      0                       # What write queue length does an incoming req see
system.mem_ctrls.wrQLenPdf::96                      0                       # What write queue length does an incoming req see
system.mem_ctrls.wrQLenPdf::97                      0                       # What write queue length does an incoming req see
system.mem_ctrls.wrQLenPdf::98                      0                       # What write queue length does an incoming req see
system.mem_ctrls.wrQLenPdf::99                      0                       # What write queue length does an incoming req see
system.mem_ctrls.wrQLenPdf::100                     0                       # What write queue length does an incoming req see
system.mem_ctrls.wrQLenPdf::101                     0                       # What write queue length does an incoming req see
system.mem_ctrls.wrQLenPdf::102                     0                       # What write queue length does an incoming req see
system.mem_ctrls.wrQLenPdf::103                     0                       # What write queue length does an incoming req see
system.mem_ctrls.wrQLenPdf::104                     0                       # What write queue length does an incoming req see
system.mem_ctrls.wrQLenPdf::105                     0                       # What write queue length does an incoming req see
system.mem_ctrls.wrQLenPdf::106                     0                       # What write queue length does an incoming req see
system.mem_ctrls.wrQLenPdf::107                     0                       # What write queue length does an incoming req see
system.mem_ctrls.wrQLenPdf::108                     0                       # What write queue length does an incoming req see
system.mem_ctrls.wrQLenPdf::109                     0                       # What write queue length does an incoming req see
system.mem_ctrls.wrQLenPdf::110                     0                       # What write queue length does an incoming req see
system.mem_ctrls.wrQLenPdf::111                     0                       # What write queue length does an incoming req see
system.mem_ctrls.wrQLenPdf::112                     0                       # What write queue length does an incoming req see
system.mem_ctrls.wrQLenPdf::113                     0                       # What write queue length does an incoming req see
system.mem_ctrls.wrQLenPdf::114                     0                       # What write queue length does an incoming req see
system.mem_ctrls.wrQLenPdf::115                     0                       # What write queue length does an incoming req see
system.mem_ctrls.wrQLenPdf::116                     0                       # What write queue length does an incoming req see
system.mem_ctrls.wrQLenPdf::117                     0                       # What write queue length does an incoming req see
system.mem_ctrls.wrQLenPdf::118                     0                       # What write queue length does an incoming req see
system.mem_ctrls.wrQLenPdf::119                     0                       # What write queue length does an incoming req see
system.mem_ctrls.wrQLenPdf::120                     0                       # What write queue length does an incoming req see
system.mem_ctrls.wrQLenPdf::121                     0                       # What write queue length does an incoming req see
system.mem_ctrls.wrQLenPdf::122                     0                       # What write queue length does an incoming req see
system.mem_ctrls.wrQLenPdf::123                     0                       # What write queue length does an incoming req see
system.mem_ctrls.wrQLenPdf::124                     0                       # What write queue length does an incoming req see
system.mem_ctrls.wrQLenPdf::125                     0                       # What write queue length does an incoming req see
system.mem_ctrls.wrQLenPdf::126                     0                       # What write queue length does an incoming req see
system.mem_ctrls.wrQLenPdf::127                     0                       # What write queue length does an incoming req see
system.mem_ctrls.bytesPerActivate::samples          110                       # Bytes accessed per row activation
system.mem_ctrls.bytesPerActivate::mean    284.509091                       # Bytes accessed per row activation
system.mem_ctrls.bytesPerActivate::gmean   183.823399                       # Bytes accessed per row activation
system.mem_ctrls.bytesPerActivate::stdev   290.722155                       # Bytes accessed per row activation
system.mem_ctrls.bytesPerActivate::0-127           34     30.91%     30.91% # Bytes accessed per row activation
system.mem_ctrls.bytesPerActivate::128-255           31     28.18%     59.09% # Bytes accessed per row activation
system.mem_ctrls.bytesPerActivate::256-383           21     19.09%     78.18% # Bytes accessed per row activation
system.mem_ctrls.bytesPerActivate::384-511            6      5.45%     83.64% # Bytes accessed per row activation
system.mem_ctrls.bytesPerActivate::512-639            3      2.73%     86.36% # Bytes accessed per row activation
system.mem_ctrls.bytesPerActivate::640-767            1      0.91%     87.27% # Bytes accessed per row activation
system.mem_ctrls.bytesPerActivate::768-895            3      2.73%     90.00% # Bytes accessed per row activation
system.mem_ctrls.bytesPerActivate::896-1023            3      2.73%     92.73% # Bytes accessed per row activation
system.mem_ctrls.bytesPerActivate::1024-1151            8      7.27%    100.00% # Bytes accessed per row activation
system.mem_ctrls.bytesPerActivate::total          110                       # Bytes accessed per row activation
system.mem_ctrls.bytesReadDRAM                  32064                       # Total number of bytes read from DRAM
system.mem_ctrls.bytesReadWrQ                     896                       # Total number of bytes read from write queue
system.mem_ctrls.bytesWritten                       0                       # Total number of bytes written to DRAM
system.mem_ctrls.bytesReadSys                   32960                       # Total read bytes from the system interface side
system.mem_ctrls.bytesWrittenSys                 3328                       # Total written bytes from the system interface side
system.mem_ctrls.avgRdBW                       975.89                       # Average DRAM read bandwidth in MiByte/s
system.mem_ctrls.avgWrBW                         0.00                       # Average achieved write bandwidth in MiByte/s
system.mem_ctrls.avgRdBWSys                   1003.17                       # Average system read bandwidth in MiByte/s
system.mem_ctrls.avgWrBWSys                    101.29                       # Average system write bandwidth in MiByte/s
system.mem_ctrls.peakBW                      19207.00                       # Theoretical peak bandwidth in MiByte/s
system.mem_ctrls.busUtil                         5.08                       # Data bus utilization in percentage
system.mem_ctrls.busUtilRead                     5.08                       # Data bus utilization in percentage for reads
system.mem_ctrls.busUtilWrite                    0.00                       # Data bus utilization in percentage for writes
system.mem_ctrls.totGap                      32798500                       # Total gap between requests
system.mem_ctrls.avgGap                      57845.68                       # Average gap between requests
system.mem_ctrls.masterReadBytes::.cpu.inst        23424                       # Per-master bytes read from memory
system.mem_ctrls.masterReadBytes::.cpu.data         8640                       # Per-master bytes read from memory
system.mem_ctrls.masterReadRate::.cpu.inst 712929145.361577868462                       # Per-master bytes read from memory rate (Bytes/sec)
system.mem_ctrls.masterReadRate::.cpu.data 262965668.371073782444                       # Per-master bytes read from memory rate (Bytes/sec)
system.mem_ctrls.masterReadAccesses::.cpu.inst          379                       # Per-master read serviced memory accesses
system.mem_ctrls.masterReadAccesses::.cpu.data          136                       # Per-master read serviced memory accesses
system.mem_ctrls.masterWriteAccesses::.writebacks           52                       # Per-master write serviced memory accesses
system.mem_ctrls.masterReadTotalLat::.cpu.inst      9176164                       # Per-master read total memory access latency
system.mem_ctrls.masterReadTotalLat::.cpu.data      4269340                       # Per-master read total memory access latency
system.mem_ctrls.masterReadAvgLat::.cpu.inst     24211.51                       # Per-master read average memory access latency
system.mem_ctrls.masterReadAvgLat::.cpu.data     31392.21                       # Per-master read average memory access latency
system.mem_ctrls.masterWriteAvgLat::.writebacks         0.00                       # Per-master write average memory access latency
system.mem_ctrls.pageHitRate                    70.29                       # Row buffer hit rate, read and write combined
system.mem_ctrls.rank0.actEnergy         618201.620400                       # Energy for activate commands per rank (pJ)
system.mem_ctrls.rank0.preEnergy         406250.768000                       # Energy for precharge commands per rank (pJ)
system.mem_ctrls.rank0.readEnergy        1520427.585600                       # Energy for read commands per rank (pJ)
system.mem_ctrls.rank0.writeEnergy                  0                       # Energy for write commands per rank (pJ)
system.mem_ctrls.rank0.refreshEnergy     1526777.044800                       # Energy for refresh commands per rank (pJ)
system.mem_ctrls.rank0.actBackEnergy     8354776.752000                       # Energy for active background per rank (pJ)
system.mem_ctrls.rank0.preBackEnergy     27596.956800                       # Energy for precharge background per rank (pJ)
system.mem_ctrls.rank0.actPowerDownEnergy            0                       # Energy for active power-down per rank (pJ)
system.mem_ctrls.rank0.prePowerDownEnergy            0                       # Energy for precharge power-down per rank (pJ)
system.mem_ctrls.rank0.selfRefreshEnergy            0                       # Energy for self refresh per rank (pJ)
system.mem_ctrls.rank0.totalEnergy       12454030.727600                       # Total energy per rank (pJ)
system.mem_ctrls.rank0.averagePower        379.048902                       # Core power per rank (mW)
system.mem_ctrls.rank0.totalIdleTime                0                       # Total Idle time Per DRAM Rank
system.mem_ctrls.rank0.memoryStateTime::IDLE         1500                       # Time in different power states
system.mem_ctrls.rank0.memoryStateTime::REF      1400000                       # Time in different power states
system.mem_ctrls.rank0.memoryStateTime::SREF            0                       # Time in different power states
system.mem_ctrls.rank0.memoryStateTime::PRE_PDN            0                       # Time in different power states
system.mem_ctrls.rank0.memoryStateTime::ACT     31454500                       # Time in different power states
system.mem_ctrls.rank0.memoryStateTime::ACT_PDN            0                       # Time in different power states
system.cpu_clk_domain.clock                       500                       # Clock period in ticks
system.cpu.pwrStateResidencyTicks::ON        32856000                       # Cumulative time (in ticks) in various power states
system.cpu.icache.pwrStateResidencyTicks::UNDEFINED     32856000                       # Cumulative time (in ticks) in various power states
system.cpu.icache.demand_hits::.cpu.inst         4323                       # number of demand (read+write) hits
system.cpu.icache.demand_hits::total             4323                       # number of demand (read+write) hits
system.cpu.icache.overall_hits::.cpu.inst         4323                       # number of overall hits
system.cpu.icache.overall_hits::total            4323                       # number of overall hits
system.cpu.icache.demand_misses::.cpu.inst          379                       # number of demand (read+write) misses
system.cpu.icache.demand_misses::total            379                       # number of demand (read+write) misses
system.cpu.icache.overall_misses::.cpu.inst          379                       # number of overall misses
system.cpu.icache.overall_misses::total           379                       # number of overall misses
system.cpu.icache.demand_miss_latency::.cpu.inst     21468000                       # number of demand (read+write) miss cycles
system.cpu.icache.demand_miss_latency::total     21468000                       # number of demand (read+write) miss cycles
system.cpu.icache.overall_miss_latency::.cpu.inst     21468000                       # number of overall miss cycles
system.cpu.icache.overall_miss_latency::total     21468000                       # number of overall miss cycles
system.cpu.icache.demand_accesses::.cpu.inst         4702                       # number of demand (read+write) accesses
system.cpu.icache.demand_accesses::total         4702                       # number of demand (read+write) accesses
system.cpu.icache.overall_accesses::.cpu.inst         4702                       # number of overall (read+write) accesses
system.cpu.icache.overall_accesses::total         4702                       # number of overall (read+write) accesses
system.cpu.icache.demand_miss_rate::.cpu.inst     0.080604                       # miss rate for demand accesses
system.cpu.icache.demand_miss_rate::total     0.080604                       # miss rate for demand accesses
system.cpu.icache.overall_miss_rate::.cpu.inst     0.080604                       # miss rate for overall accesses
system.cpu.icache.overall_miss_rate::total     0.080604                       # miss rate for overall accesses
system.cpu.icache.demand_avg_miss_latency::.cpu.inst 56643.799472                       # average overall miss latency
system.cpu.icache.demand_avg_miss_latency::total 56643.799472                       # average overall miss latency
system.cpu.icache.overall_avg_miss_latency::.cpu.inst 56643.799472                       # average overall miss latency
system.cpu.icache.overall_avg_miss_latency::total 56643.799472                       # average overall miss latency
system.cpu.icache.blocked_cycles::no_mshrs            0                       # number of cycles access was blocked
system.cpu.icache.blocked_cycles::no_targets            0                       # number of cycles access was blocked
system.cpu.icache.blocked::no_mshrs                 0                       # number of cycles access was blocked
system.cpu.icache.blocked::no_targets               0                       # number of cycles access was blocked
system.cpu.icache.avg_blocked_cycles::no_mshrs          nan                       # average number of cycles each access was blocked
system.cpu.icache.avg_blocked_cycles::no_targets          nan                       # average number of cycles each access was blocked
system.cpu.icache.writebacks::.writebacks           55                       # number of writebacks
system.cpu.icache.writebacks::total                55                       # number of writebacks
system.cpu.icache.demand_mshr_misses::.cpu.inst          379                       # number of demand (read+write) MSHR misses
system.cpu.icache.demand_mshr_misses::total          379                       # number of demand (read+write) MSHR misses
system.cpu.icache.overall_mshr_misses::.cpu.inst          379                       # number of overall MSHR misses
system.cpu.icache.overall_mshr_misses::total          379                       # number of overall MSHR misses
system.cpu.icache.demand_mshr_miss_latency::.cpu.inst     21089000                       # number of demand (read+write) MSHR miss cycles
system.cpu.icache.demand_mshr_miss_latency::total     21089000                       # number of demand (read+write) MSHR miss cycles
system.cpu.icache.overall_mshr_miss_latency::.cpu.inst     21089000                       # number of overall MSHR miss cycles
system.cpu.icache.overall_mshr_miss_latency::total     21089000                       # number of overall MSHR miss cycles
system.cpu.icache.demand_mshr_miss_rate::.cpu.inst     0.080604                       # mshr miss rate for demand accesses
system.cpu.icache.demand_mshr_miss_rate::total     0.080604                       # mshr miss rate for demand accesses
system.cpu.icache.overall_mshr_miss_rate::.cpu.inst     0.080604                       # mshr miss rate for overall accesses
system.cpu.icache.overall_mshr_miss_rate::total     0.080604                       # mshr miss rate for overall accesses
system.cpu.icache.demand_avg_mshr_miss_latency::.cpu.inst 55643.799472                       # average overall mshr miss latency
system.cpu.icache.demand_avg_mshr_miss_latency::total 55643.799472                       # average overall mshr miss latency
system.cpu.icache.overall_avg_mshr_miss_latency::.cpu.inst 55643.799472                       # average overall mshr miss latency
system.cpu.icache.overall_avg_mshr_miss_latency::total 55643.799472                       # average overall mshr miss latency
system.cpu.icache.replacements                     55                       # number of replacements
system.cpu.icache.ReadReq_hits::.cpu.inst         4323                       # number of ReadReq hits
system.cpu.icache.ReadReq_hits::total            4323                       # number of ReadReq hits
system.cpu.icache.ReadReq_misses::.cpu.inst          379                       # number of ReadReq misses
system.cpu.icache.ReadReq_misses::total           379                       # number of ReadReq misses
system.cpu.icache.ReadReq_miss_latency::.cpu.inst     21468000                       # number of ReadReq miss cycles
system.cpu.icache.ReadReq_miss_latency::total     21468000                       # number of ReadReq miss cycles
system.cpu.icache.ReadReq_accesses::.cpu.inst         4702                       # number of ReadReq accesses(hits+misses)
system.cpu.icache.ReadReq_accesses::total         4702                       # number of ReadReq accesses(hits+misses)
system.cpu.icache.ReadReq_miss_rate::.cpu.inst     0.080604                       # miss rate for ReadReq accesses
system.cpu.icache.ReadReq_miss_rate::total     0.080604                       # miss rate for ReadReq accesses
system.cpu.icache.ReadReq_avg_miss_latency::.cpu.inst 56643.799472                       # average ReadReq miss latency
system.cpu.icache.ReadReq_avg_miss_latency::total 56643.799472                       # average ReadReq miss latency
system.cpu.icache.ReadReq_mshr_misses::.cpu.inst          379                       # number of ReadReq MSHR misses
system.cpu.icache.ReadReq_mshr_misses::total          379                       # number of ReadReq MSHR misses
system.cpu.icache.ReadReq_mshr_miss_latency::.cpu.inst     21089000                       # number of ReadReq MSHR miss cycles
system.cpu.icache.ReadReq_mshr_miss_latency::total     21089000                       # number of ReadReq MSHR miss cycles
system.cpu.icache.ReadReq_mshr_miss_rate::.cpu.inst     0.080604                       # mshr miss rate for ReadReq accesses
system.cpu.icache.ReadReq_mshr_miss_rate::total     0.080604                       # mshr miss rate for ReadReq accesses
system.cpu.icache.ReadReq_avg_mshr_miss_latency::.cpu.inst 55643.799472                       # average ReadReq mshr miss latency
system.cpu.icache.ReadReq_avg_mshr_miss_latency::total 55643.799472                       # average ReadReq mshr miss latency
system.cpu.icache.tags.pwrStateResidencyTicks::UNDEFINED     32856000                       # Cumulative time (in ticks) in various power states
system.cpu.icache.tags.tagsinuse           193.757400                       # Cycle average of tags in use
system.cpu.icache.tags.total_refs                4702                       # Total number of references to valid blocks.
system.cpu.icache.tags.sampled_refs               379                       # Sample count of references to valid blocks.
system.cpu.icache.tags.avg_refs             12.406332                       # Average number of references to valid blocks.
system.cpu.icache.tags.warmup_cycle             77000                       # Cycle when the warmup percentage was hit.
system.cpu.icache.tags.occ_blocks::.cpu.inst   193.757400                       # Average occupied blocks per requestor
system.cpu.icache.tags.occ_percent::.cpu.inst     0.378432                       # Average percentage of cache occupancy
system.cpu.icache.tags.occ_percent::total     0.378432                       # Average percentage of cache occupancy
system.cpu.icache.tags.occ_task_id_blocks::1024          324                       # Occupied blocks per task id
system.cpu.icache.tags.age_task_id_blocks_1024::0           70                       # Occupied blocks per task id
system.cpu.icache.tags.age_task_id_blocks_1024::1          254                       # Occupied blocks per task id
system.cpu.icache.tags.occ_task_id_percent::1024     0.632812                       # Percentage of cache occupancy per task id
system.cpu.icache.tags.tag_accesses              9783                       # Number of tag accesses
system.cpu.icache.tags.data_accesses             9783                       # Number of data accesses
system.cpu.dtb.walker.pwrStateResidencyTicks::UNDEFINED     32856000                       # Cumulative time (in ticks) in various power states
system.cpu.dtb.stage2_mmu.stage2_tlb.walker.pwrStateResidencyTicks::UNDEFINED     32856000                       # Cumulative time (in ticks) in various power states
system.cpu.dcache.pwrStateResidencyTicks::UNDEFINED     32856000                       # Cumulative time (in ticks) in various power states
system.cpu.dcache.demand_hits::.cpu.data         4694                       # number of demand (read+write) hits
system.cpu.dcache.demand_hits::total             4694                       # number of demand (read+write) hits
system.cpu.dcache.overall_hits::.cpu.data         4710                       # number of overall hits
system.cpu.dcache.overall_hits::total            4710                       # number of overall hits
system.cpu.dcache.demand_misses::.cpu.data          169                       # number of demand (read+write) misses
system.cpu.dcache.demand_misses::total            169                       # number of demand (read+write) misses
system.cpu.dcache.overall_misses::.cpu.data          175                       # number of overall misses
system.cpu.dcache.overall_misses::total           175                       # number of overall misses
system.cpu.dcache.demand_miss_latency::.cpu.data     10742500                       # number of demand (read+write) miss cycles
system.cpu.dcache.demand_miss_latency::total     10742500                       # number of demand (read+write) miss cycles
system.cpu.dcache.overall_miss_latency::.cpu.data     10742500                       # number of overall miss cycles
system.cpu.dcache.overall_miss_latency::total     10742500                       # number of overall miss cycles
system.cpu.dcache.demand_accesses::.cpu.data         4863                       # number of demand (read+write) accesses
system.cpu.dcache.demand_accesses::total         4863                       # number of demand (read+write) accesses
system.cpu.dcache.overall_accesses::.cpu.data         4885                       # number of overall (read+write) accesses
system.cpu.dcache.overall_accesses::total         4885                       # number of overall (read+write) accesses
system.cpu.dcache.demand_miss_rate::.cpu.data     0.034752                       # miss rate for demand accesses
system.cpu.dcache.demand_miss_rate::total     0.034752                       # miss rate for demand accesses
system.cpu.dcache.overall_miss_rate::.cpu.data     0.035824                       # miss rate for overall accesses
system.cpu.dcache.overall_miss_rate::total     0.035824                       # miss rate for overall accesses
system.cpu.dcache.demand_avg_miss_latency::.cpu.data 63565.088757                       # average overall miss latency
system.cpu.dcache.demand_avg_miss_latency::total 63565.088757                       # average overall miss latency
system.cpu.dcache.overall_avg_miss_latency::.cpu.data 61385.714286                       # average overall miss latency
system.cpu.dcache.overall_avg_miss_latency::total 61385.714286                       # average overall miss latency
system.cpu.dcache.blocked_cycles::no_mshrs            0                       # number of cycles access was blocked
system.cpu.dcache.blocked_cycles::no_targets            0                       # number of cycles access was blocked
system.cpu.dcache.blocked::no_mshrs                 0                       # number of cycles access was blocked
system.cpu.dcache.blocked::no_targets               0                       # number of cycles access was blocked
system.cpu.dcache.avg_blocked_cycles::no_mshrs          nan                       # average number of cycles each access was blocked
system.cpu.dcache.avg_blocked_cycles::no_targets          nan                       # average number of cycles each access was blocked
system.cpu.dcache.demand_mshr_hits::.cpu.data           39                       # number of demand (read+write) MSHR hits
system.cpu.dcache.demand_mshr_hits::total           39                       # number of demand (read+write) MSHR hits
system.cpu.dcache.overall_mshr_hits::.cpu.data           39                       # number of overall MSHR hits
system.cpu.dcache.overall_mshr_hits::total           39                       # number of overall MSHR hits
system.cpu.dcache.demand_mshr_misses::.cpu.data          130                       # number of demand (read+write) MSHR misses
system.cpu.dcache.demand_mshr_misses::total          130                       # number of demand (read+write) MSHR misses
system.cpu.dcache.overall_mshr_misses::.cpu.data          135                       # number of overall MSHR misses
system.cpu.dcache.overall_mshr_misses::total          135                       # number of overall MSHR misses
system.cpu.dcache.demand_mshr_miss_latency::.cpu.data      8165000                       # number of demand (read+write) MSHR miss cycles
system.cpu.dcache.demand_mshr_miss_latency::total      8165000                       # number of demand (read+write) MSHR miss cycles
system.cpu.dcache.overall_mshr_miss_latency::.cpu.data      8511500                       # number of overall MSHR miss cycles
system.cpu.dcache.overall_mshr_miss_latency::total      8511500                       # number of overall MSHR miss cycles
system.cpu.dcache.demand_mshr_miss_rate::.cpu.data     0.026732                       # mshr miss rate for demand accesses
system.cpu.dcache.demand_mshr_miss_rate::total     0.026732                       # mshr miss rate for demand accesses
system.cpu.dcache.overall_mshr_miss_rate::.cpu.data     0.027636                       # mshr miss rate for overall accesses
system.cpu.dcache.overall_mshr_miss_rate::total     0.027636                       # mshr miss rate for overall accesses
system.cpu.dcache.demand_avg_mshr_miss_latency::.cpu.data 62807.692308                       # average overall mshr miss latency
system.cpu.dcache.demand_avg_mshr_miss_latency::total 62807.692308                       # average overall mshr miss latency
system.cpu.dcache.overall_avg_mshr_miss_latency::.cpu.data 63048.148148                       # average overall mshr miss latency
system.cpu.dcache.overall_avg_mshr_miss_latency::total 63048.148148                       # average overall mshr miss latency
system.cpu.dcache.replacements                      0                       # number of replacements
system.cpu.dcache.ReadReq_hits::.cpu.data         2445                       # number of ReadReq hits
system.cpu.dcache.ReadReq_hits::total            2445                       # number of ReadReq hits
system.cpu.dcache.ReadReq_misses::.cpu.data           79                       # number of ReadReq misses
system.cpu.dcache.ReadReq_misses::total            79                       # number of ReadReq misses
system.cpu.dcache.ReadReq_miss_latency::.cpu.data      4838500                       # number of ReadReq miss cycles
system.cpu.dcache.ReadReq_miss_latency::total      4838500                       # number of ReadReq miss cycles
system.cpu.dcache.ReadReq_accesses::.cpu.data         2524                       # number of ReadReq accesses(hits+misses)
system.cpu.dcache.ReadReq_accesses::total         2524                       # number of ReadReq accesses(hits+misses)
system.cpu.dcache.ReadReq_miss_rate::.cpu.data     0.031300                       # miss rate for ReadReq accesses
system.cpu.dcache.ReadReq_miss_rate::total     0.031300                       # miss rate for ReadReq accesses
system.cpu.dcache.ReadReq_avg_miss_latency::.cpu.data 61246.835443                       # average ReadReq miss latency
system.cpu.dcache.ReadReq_avg_miss_latency::total 61246.835443                       # average ReadReq miss latency
system.cpu.dcache.ReadReq_mshr_hits::.cpu.data            7                       # number of ReadReq MSHR hits
system.cpu.dcache.ReadReq_mshr_hits::total            7                       # number of ReadReq MSHR hits
system.cpu.dcache.ReadReq_mshr_misses::.cpu.data           72                       # number of ReadReq MSHR misses
system.cpu.dcache.ReadReq_mshr_misses::total           72                       # number of ReadReq MSHR misses
system.cpu.dcache.ReadReq_mshr_miss_latency::.cpu.data      4344500                       # number of ReadReq MSHR miss cycles
system.cpu.dcache.ReadReq_mshr_miss_latency::total      4344500                       # number of ReadReq MSHR miss cycles
system.cpu.dcache.ReadReq_mshr_miss_rate::.cpu.data     0.028526                       # mshr miss rate for ReadReq accesses
system.cpu.dcache.ReadReq_mshr_miss_rate::total     0.028526                       # mshr miss rate for ReadReq accesses
system.cpu.dcache.ReadReq_avg_mshr_miss_latency::.cpu.data 60340.277778                       # average ReadReq mshr miss latency
system.cpu.dcache.ReadReq_avg_mshr_miss_latency::total 60340.277778                       # average ReadReq mshr miss latency
system.cpu.dcache.WriteReq_hits::.cpu.data         2249                       # number of WriteReq hits
system.cpu.dcache.WriteReq_hits::total           2249                       # number of WriteReq hits
system.cpu.dcache.WriteReq_misses::.cpu.data           90                       # number of WriteReq misses
system.cpu.dcache.WriteReq_misses::total           90                       # number of WriteReq misses
system.cpu.dcache.WriteReq_miss_latency::.cpu.data      5904000                       # number of WriteReq miss cycles
system.cpu.dcache.WriteReq_miss_latency::total      5904000                       # number of WriteReq miss cycles
system.cpu.dcache.WriteReq_accesses::.cpu.data         2339                       # number of WriteReq accesses(hits+misses)
system.cpu.dcache.WriteReq_accesses::total         2339                       # number of WriteReq accesses(hits+misses)
system.cpu.dcache.WriteReq_miss_rate::.cpu.data     0.038478                       # miss rate for WriteReq accesses
system.cpu.dcache.WriteReq_miss_rate::total     0.038478                       # miss rate for WriteReq accesses
system.cpu.dcache.WriteReq_avg_miss_latency::.cpu.data        65600                       # average WriteReq miss latency
system.cpu.dcache.WriteReq_avg_miss_latency::total        65600                       # average WriteReq miss latency
system.cpu.dcache.WriteReq_mshr_hits::.cpu.data           32                       # number of WriteReq MSHR hits
system.cpu.dcache.WriteReq_mshr_hits::total           32                       # number of WriteReq MSHR hits
system.cpu.dcache.WriteReq_mshr_misses::.cpu.data           58                       # number of WriteReq MSHR misses
system.cpu.dcache.WriteReq_mshr_misses::total           58                       # number of WriteReq MSHR misses
system.cpu.dcache.WriteReq_mshr_miss_latency::.cpu.data      3820500                       # number of WriteReq MSHR miss cycles
system.cpu.dcache.WriteReq_mshr_miss_latency::total      3820500                       # number of WriteReq MSHR miss cycles
system.cpu.dcache.WriteReq_mshr_miss_rate::.cpu.data     0.024797                       # mshr miss rate for WriteReq accesses
system.cpu.dcache.WriteReq_mshr_miss_rate::total     0.024797                       # mshr miss rate for WriteReq accesses
system.cpu.dcache.WriteReq_avg_mshr_miss_latency::.cpu.data 65870.689655                       # average WriteReq mshr miss latency
system.cpu.dcache.WriteReq_avg_mshr_miss_latency::total 65870.689655                       # average WriteReq mshr miss latency
system.cpu.dcache.SoftPFReq_hits::.cpu.data           16                       # number of SoftPFReq hits
system.cpu.dcache.SoftPFReq_hits::total            16                       # number of SoftPFReq hits
system.cpu.dcache.SoftPFReq_misses::.cpu.data            6                       # number of SoftPFReq misses
system.cpu.dcache.SoftPFReq_misses::total            6                       # number of SoftPFReq misses
system.cpu.dcache.SoftPFReq_accesses::.cpu.data           22                       # number of SoftPFReq accesses(hits+misses)
system.cpu.dcache.SoftPFReq_accesses::total           22                       # number of SoftPFReq accesses(hits+misses)
system.cpu.dcache.SoftPFReq_miss_rate::.cpu.data     0.272727                       # miss rate for SoftPFReq accesses
system.cpu.dcache.SoftPFReq_miss_rate::total     0.272727                       # miss rate for SoftPFReq accesses
system.cpu.dcache.SoftPFReq_mshr_misses::.cpu.data            5                       # number of SoftPFReq MSHR misses
system.cpu.dcache.SoftPFReq_mshr_misses::total            5                       # number of SoftPFReq MSHR misses
system.cpu.dcache.SoftPFReq_mshr_miss_latency::.cpu.data       346500                       # number of SoftPFReq MSHR miss cycles
system.cpu.dcache.SoftPFReq_mshr_miss_latency::total       346500                       # number of SoftPFReq MSHR miss cycles
system.cpu.dcache.SoftPFReq_mshr_miss_rate::.cpu.data     0.227273                       # mshr miss rate for SoftPFReq accesses
system.cpu.dcache.SoftPFReq_mshr_miss_rate::total     0.227273                       # mshr miss rate for SoftPFReq accesses
system.cpu.dcache.SoftPFReq_avg_mshr_miss_latency::.cpu.data        69300                       # average SoftPFReq mshr miss latency
system.cpu.dcache.SoftPFReq_avg_mshr_miss_latency::total        69300                       # average SoftPFReq mshr miss latency
system.cpu.dcache.LoadLockedReq_hits::.cpu.data           32                       # number of LoadLockedReq hits
system.cpu.dcache.LoadLockedReq_hits::total           32                       # number of LoadLockedReq hits
system.cpu.dcache.LoadLockedReq_misses::.cpu.data            1                       # number of LoadLockedReq misses
system.cpu.dcache.LoadLockedReq_misses::total            1                       # number of LoadLockedReq misses
system.cpu.dcache.LoadLockedReq_miss_latency::.cpu.data        78500                       # number of LoadLockedReq miss cycles
system.cpu.dcache.LoadLockedReq_miss_latency::total        78500                       # number of LoadLockedReq miss cycles
system.cpu.dcache.LoadLockedReq_accesses::.cpu.data           33                       # number of LoadLockedReq accesses(hits+misses)
system.cpu.dcache.LoadLockedReq_accesses::total           33                       # number of LoadLockedReq accesses(hits+misses)
system.cpu.dcache.LoadLockedReq_miss_rate::.cpu.data     0.030303                       # miss rate for LoadLockedReq accesses
system.cpu.dcache.LoadLockedReq_miss_rate::total     0.030303                       # miss rate for LoadLockedReq accesses
system.cpu.dcache.LoadLockedReq_avg_miss_latency::.cpu.data        78500                       # average LoadLockedReq miss latency
system.cpu.dcache.LoadLockedReq_avg_miss_latency::total        78500                       # average LoadLockedReq miss latency
system.cpu.dcache.LoadLockedReq_mshr_misses::.cpu.data            1                       # number of LoadLockedReq MSHR misses
system.cpu.dcache.LoadLockedReq_mshr_misses::total            1                       # number of LoadLockedReq MSHR misses
system.cpu.dcache.LoadLockedReq_mshr_miss_latency::.cpu.data        77500                       # number of LoadLockedReq MSHR miss cycles
system.cpu.dcache.LoadLockedReq_mshr_miss_latency::total        77500                       # number of LoadLockedReq MSHR miss cycles
system.cpu.dcache.LoadLockedReq_mshr_miss_rate::.cpu.data     0.030303                       # mshr miss rate for LoadLockedReq accesses
system.cpu.dcache.LoadLockedReq_mshr_miss_rate::total     0.030303                       # mshr miss rate for LoadLockedReq accesses
system.cpu.dcache.LoadLockedReq_avg_mshr_miss_latency::.cpu.data        77500                       # average LoadLockedReq mshr miss latency
system.cpu.dcache.LoadLockedReq_avg_mshr_miss_latency::total        77500                       # average LoadLockedReq mshr miss latency
system.cpu.dcache.StoreCondReq_hits::.cpu.data           33                       # number of StoreCondReq hits
system.cpu.dcache.StoreCondReq_hits::total           33                       # number of StoreCondReq hits
system.cpu.dcache.StoreCondReq_accesses::.cpu.data           33                       # number of StoreCondReq accesses(hits+misses)
system.cpu.dcache.StoreCondReq_accesses::total           33                       # number of StoreCondReq accesses(hits+misses)
system.cpu.dcache.tags.pwrStateResidencyTicks::UNDEFINED     32856000                       # Cumulative time (in ticks) in various power states
system.cpu.dcache.tags.tagsinuse            88.125975                       # Cycle average of tags in use
system.cpu.dcache.tags.total_refs                4911                       # Total number of references to valid blocks.
system.cpu.dcache.tags.sampled_refs               136                       # Sample count of references to valid blocks.
system.cpu.dcache.tags.avg_refs             36.110294                       # Average number of references to valid blocks.
system.cpu.dcache.tags.warmup_cycle            144000                       # Cycle when the warmup percentage was hit.
system.cpu.dcache.tags.occ_blocks::.cpu.data    88.125975                       # Average occupied blocks per requestor
system.cpu.dcache.tags.occ_percent::.cpu.data     0.086061                       # Average percentage of cache occupancy
system.cpu.dcache.tags.occ_percent::total     0.086061                       # Average percentage of cache occupancy
system.cpu.dcache.tags.occ_task_id_blocks::1024          136                       # Occupied blocks per task id
system.cpu.dcache.tags.age_task_id_blocks_1024::0           11                       # Occupied blocks per task id
system.cpu.dcache.tags.age_task_id_blocks_1024::1          125                       # Occupied blocks per task id
system.cpu.dcache.tags.occ_task_id_percent::1024     0.132812                       # Percentage of cache occupancy per task id
system.cpu.dcache.tags.tag_accesses             10038                       # Number of tag accesses
system.cpu.dcache.tags.data_accesses            10038                       # Number of data accesses
system.cpu.itb.walker.pwrStateResidencyTicks::UNDEFINED     32856000                       # Cumulative time (in ticks) in various power states
system.cpu.itb.stage2_mmu.stage2_tlb.walker.pwrStateResidencyTicks::UNDEFINED     32856000                       # Cumulative time (in ticks) in various power states

---------- End Simulation Statistics   ----------
