
---------- Begin Simulation Statistics ----------
final_tick                                   39281000                       # Number of ticks from beginning of simulation (restored from checkpoints and never reset)
host_inst_rate                                 646721                       # Simulator instruction rate (inst/s)
host_mem_usage                                 692448                       # Number of bytes of host memory used
host_op_rate                                   760367                       # Simulator op (including micro ops) rate (op/s)
host_seconds                                     0.02                       # Real time elapsed on the host
host_tick_rate                             2204488737                       # Simulator tick rate (ticks/s)
sim_freq                                 1000000000000                       # Frequency of simulated ticks
sim_insts                                       11460                       # Number of instructions simulated
sim_ops                                         13539                       # Number of ops (including micro ops) simulated
sim_seconds                                  0.000039                       # Number of seconds simulated
sim_ticks                                    39281000                       # Number of ticks simulated
system.cpu.Branches                              2437                       # Number of branches fetched
system.cpu.committedInsts                       11460                       # Number of instructions committed
system.cpu.committedOps                         13539                       # Number of ops (including micro ops) committed
system.cpu.dtb.accesses                             0                       # DTB accesses
system.cpu.dtb.align_faults                         0                       # Number of TLB faults due to alignment restrictions
system.cpu.dtb.domain_faults                        0                       # Number of TLB faults due to domain restrictions
system.cpu.dtb.flush_entries                        0                       # Number of entries that have been flushed from TLB
system.cpu.dtb.flush_tlb                            0                       # Number of times complete TLB was flushed
system.cpu.dtb.flush_tlb_asid                       0                       # Number of times TLB was flushed by ASID
system.cpu.dtb.flush_tlb_mva                        0                       # Number of times TLB was flushed by MVA
system.cpu.dtb.flush_tlb_mva_asid                   0                       # Number of times TLB was flushed by MVA & ASID
system.cpu.dtb.hits                                 0                       # DTB hits
system.cpu.dtb.inst_accesses                        0                       # ITB inst accesses
system.cpu.dtb.inst_hits                            0                       # ITB inst hits
system.cpu.dtb.inst_misses                          0                       # ITB inst misses
system.cpu.dtb.misses                               0                       # DTB misses
system.cpu.dtb.perms_faults                         0                       # Number of TLB faults due to permissions restrictions
system.cpu.dtb.prefetch_faults                      0                       # Number of TLB faults due to prefetch
system.cpu.dtb.read_accesses                        0                       # DTB read accesses
system.cpu.dtb.read_hits                            0                       # DTB read hits
system.cpu.dtb.read_misses                          0                       # DTB read misses
system.cpu.dtb.stage2_mmu.stage2_tlb.accesses            0                       # DTB accesses
system.cpu.dtb.stage2_mmu.stage2_tlb.align_faults            0                       # Number of TLB faults due to alignment restrictions
system.cpu.dtb.stage2_mmu.stage2_tlb.domain_faults            0                       # Number of TLB faults due to domain restrictions
system.cpu.dtb.stage2_mmu.stage2_tlb.flush_entries            0                       # Number of entries that have been flushed from TLB
system.cpu.dtb.stage2_mmu.stage2_tlb.flush_tlb            0                       # Number of times complete TLB was flushed
system.cpu.dtb.stage2_mmu.stage2_tlb.flush_tlb_asid            0                       # Number of times TLB was flushed by ASID
system.cpu.dtb.stage2_mmu.stage2_tlb.flush_tlb_mva            0                       # Number of times TLB was flushed by MVA
system.cpu.dtb.stage2_mmu.stage2_tlb.flush_tlb_mva_asid            0                       # Number of times TLB was flushed by MVA & ASID
system.cpu.dtb.stage2_mmu.stage2_tlb.hits            0                       # DTB hits
system.cpu.dtb.stage2_mmu.stage2_tlb.inst_accesses            0                       # ITB inst accesses
system.cpu.dtb.stage2_mmu.stage2_tlb.inst_hits            0                       # ITB inst hits
system.cpu.dtb.stage2_mmu.stage2_tlb.inst_misses            0                       # ITB inst misses
system.cpu.dtb.stage2_mmu.stage2_tlb.misses            0                       # DTB misses
system.cpu.dtb.stage2_mmu.stage2_tlb.perms_faults            0                       # Number of TLB faults due to permissions restrictions
system.cpu.dtb.stage2_mmu.stage2_tlb.prefetch_faults            0                       # Number of TLB faults due to prefetch
system.cpu.dtb.stage2_mmu.stage2_tlb.read_accesses            0                       # DTB read accesses
system.cpu.dtb.stage2_mmu.stage2_tlb.read_hits            0                       # DTB read hits
system.cpu.dtb.stage2_mmu.stage2_tlb.read_misses            0                       # DTB read misses
system.cpu.dtb.stage2_mmu.stage2_tlb.walker.walkRequestOrigin_Requested::Data            0                       # Table walker requests started/completed, data/inst
system.cpu.dtb.stage2_mmu.stage2_tlb.walker.walkRequestOrigin_Requested::Inst            0                       # Table walker requests started/completed, data/inst
system.cpu.dtb.stage2_mmu.stage2_tlb.walker.walkRequestOrigin_Requested::total            0                       # Table walker requests started/completed, data/inst
system.cpu.dtb.stage2_mmu.stage2_tlb.walker.walkRequestOrigin_Completed::Data            0                       # Table walker requests started/completed, data/inst
system.cpu.dtb.stage2_mmu.stage2_tlb.walker.walkRequestOrigin_Completed::Inst            0                       # Table walker requests started/completed, data/inst
system.cpu.dtb.stage2_mmu.stage2_tlb.walker.walkRequestOrigin_Completed::total            0                       # Table walker requests started/completed, data/inst
system.cpu.dtb.stage2_mmu.stage2_tlb.walker.walkRequestOrigin::total            0                       # Table walker requests started/completed, data/inst
system.cpu.dtb.stage2_mmu.stage2_tlb.walker.walks            0                       # Table walker walks requested
system.cpu.dtb.stage2_mmu.stage2_tlb.write_accesses            0                       # DTB write accesses
system.cpu.dtb.stage2_mmu.stage2_tlb.write_hits            0                       # DTB write hits
system.cpu.dtb.stage2_mmu.stage2_tlb.write_misses            0                       # DTB write misses
system.cpu.dtb.walker.walkRequestOrigin_Requested::Data            0                       # Table walker requests started/completed, data/inst
system.cpu.dtb.walker.walkRequestOrigin_Requested::Inst            0                       # Table walker requests started/completed, data/inst
system.cpu.dtb.walker.walkRequestOrigin_Requested::total            0                       # Table walker requests started/completed, data/inst
system.cpu.dtb.walker.walkRequestOrigin_Completed::Data            0                       # Table walker requests started/completed, data/inst
system.cpu.dtb.walker.walkRequestOrigin_Completed::Inst            0                       # Table walker requests started/completed, data/inst
system.cpu.dtb.walker.walkRequestOrigin_Completed::total            0                       # Table walker requests started/completed, data/inst
system.cpu.dtb.walker.walkRequestOrigin::total            0                       # Table walker requests started/completed, data/inst
system.cpu.dtb.walker.walks                         0                       # Table walker walks requested
system.cpu.dtb.write_accesses                       0                       # DTB write accesses
system.cpu.dtb.write_hits                           0                       # DTB write hits
system.cpu.dtb.write_misses                         0                       # DTB write misses
system.cpu.idle_fraction                     0.000000                       # Percentage of idle cycles
system.cpu.itb.accesses                             0                       # DTB accesses
system.cpu.itb.align_faults                         0                       # Number of TLB faults due to alignment restrictions
system.cpu.itb.domain_faults                        0                       # Number of TLB faults due to domain restrictions
system.cpu.itb.flush_entries                        0                       # Number of entries that have been flushed from TLB
system.cpu.itb.flush_tlb                            0                       # Number of times complete TLB was flushed
system.cpu.itb.flush_tlb_asid                       0                       # Number of times TLB was flushed by ASID
system.cpu.itb.flush_tlb_mva                        0                       # Number of times TLB was flushed by MVA
system.cpu.itb.flush_tlb_mva_asid                   0                       # Number of times TLB was flushed by MVA & ASID
system.cpu.itb.hits                                 0                       # DTB hits
system.cpu.itb.inst_accesses                        0                       # ITB inst accesses
system.cpu.itb.inst_hits                            0                       # ITB inst hits
system.cpu.itb.inst_misses                          0                       # ITB inst misses
system.cpu.itb.misses                               0                       # DTB misses
system.cpu.itb.perms_faults                         0                       # Number of TLB faults due to permissions restrictions
system.cpu.itb.prefetch_faults                      0                       # Number of TLB faults due to prefetch
system.cpu.itb.read_accesses                        0                       # DTB read accesses
system.cpu.itb.read_hits                            0                       # DTB read hits
system.cpu.itb.read_misses                          0                       # DTB read misses
system.cpu.itb.stage2_mmu.stage2_tlb.accesses            0                       # DTB accesses
system.cpu.itb.stage2_mmu.stage2_tlb.align_faults            0                       # Number of TLB faults due to alignment restrictions
system.cpu.itb.stage2_mmu.stage2_tlb.domain_faults            0                       # Number of TLB faults due to domain restrictions
system.cpu.itb.stage2_mmu.stage2_tlb.flush_entries            0                       # Number of entries that have been flushed from TLB
system.cpu.itb.stage2_mmu.stage2_tlb.flush_tlb            0                       # Number of times complete TLB was flushed
system.cpu.itb.stage2_mmu.stage2_tlb.flush_tlb_asid            0                       # Number of times TLB was flushed by ASID
system.cpu.itb.stage2_mmu.stage2_tlb.flush_tlb_mva            0                       # Number of times TLB was flushed by MVA
system.cpu.itb.stage2_mmu.stage2_tlb.flush_tlb_mva_asid            0                       # Number of times TLB was flushed by MVA & ASID
system.cpu.itb.stage2_mmu.stage2_tlb.hits            0                       # DTB hits
system.cpu.itb.stage2_mmu.stage2_tlb.inst_accesses            0                       # ITB inst accesses
system.cpu.itb.stage2_mmu.stage2_tlb.inst_hits            0                       # ITB inst hits
system.cpu.itb.stage2_mmu.stage2_tlb.inst_misses            0                       # ITB inst misses
system.cpu.itb.stage2_mmu.stage2_tlb.misses            0                       # DTB misses
system.cpu.itb.stage2_mmu.stage2_tlb.perms_faults            0                       # Number of TLB faults due to permissions restrictions
system.cpu.itb.stage2_mmu.stage2_tlb.prefetch_faults            0                       # Number of TLB faults due to prefetch
system.cpu.itb.stage2_mmu.stage2_tlb.read_accesses            0                       # DTB read accesses
system.cpu.itb.stage2_mmu.stage2_tlb.read_hits            0                       # DTB read hits
system.cpu.itb.stage2_mmu.stage2_tlb.read_misses            0                       # DTB read misses
system.cpu.itb.stage2_mmu.stage2_tlb.walker.walkRequestOrigin_Requested::Data            0                       # Table walker requests started/completed, data/inst
system.cpu.itb.stage2_mmu.stage2_tlb.walker.walkRequestOrigin_Requested::Inst            0                       # Table walker requests started/completed, data/inst
system.cpu.itb.stage2_mmu.stage2_tlb.walker.walkRequestOrigin_Requested::total            0                       # Table walker requests started/completed, data/inst
system.cpu.itb.stage2_mmu.stage2_tlb.walker.walkRequestOrigin_Completed::Data            0                       # Table walker requests started/completed, data/inst
system.cpu.itb.stage2_mmu.stage2_tlb.walker.walkRequestOrigin_Completed::Inst            0                       # Table walker requests started/completed, data/inst
system.cpu.itb.stage2_mmu.stage2_tlb.walker.walkRequestOrigin_Completed::total            0                       # Table walker requests started/completed, data/inst
system.cpu.itb.stage2_mmu.stage2_tlb.walker.walkRequestOrigin::total            0                       # Table walker requests started/completed, data/inst
system.cpu.itb.stage2_mmu.stage2_tlb.walker.walks            0                       # Table walker walks requested
system.cpu.itb.stage2_mmu.stage2_tlb.write_accesses            0                       # DTB write accesses
system.cpu.itb.stage2_mmu.stage2_tlb.write_hits            0                       # DTB write hits
system.cpu.itb.stage2_mmu.stage2_tlb.write_misses            0                       # DTB write misses
system.cpu.itb.walker.walkRequestOrigin_Requested::Data            0                       # Table walker requests started/completed, data/inst
system.cpu.itb.walker.walkRequestOrigin_Requested::Inst            0                       # Table walker requests started/completed, data/inst
system.cpu.itb.walker.walkRequestOrigin_Requested::total            0                       # Table walker requests started/completed, data/inst
system.cpu.itb.walker.walkRequestOrigin_Completed::Data            0                       # Table walker requests started/completed, data/inst
system.cpu.itb.walker.walkRequestOrigin_Completed::Inst            0                       # Table walker requests started/completed, data/inst
system.cpu.itb.walker.walkRequestOrigin_Completed::total            0                       # Table walker requests started/completed, data/inst
system.cpu.itb.walker.walkRequestOrigin::total            0                       # Table walker requests started/completed, data/inst
system.cpu.itb.walker.walks                         0                       # Table walker walks requested
system.cpu.itb.write_accesses                       0                       # DTB write accesses
system.cpu.itb.write_hits                           0                       # DTB write hits
system.cpu.itb.write_misses                         0                       # DTB write misses
system.cpu.not_idle_fraction                 1.000000                       # Percentage of non-idle cycles
system.cpu.numCycles                            78562                       # number of cpu cycles simulated
system.cpu.numWorkItemsCompleted                    0                       # number of work items this cpu completed
system.cpu.numWorkItemsStarted                      0                       # number of work items this cpu started
system.cpu.num_busy_cycles               78561.998000                       # Number of busy cycles
system.cpu.num_cc_register_reads                47173                       # number of times the CC registers were read
system.cpu.num_cc_register_writes                6633                       # number of times the CC registers were written
system.cpu.num_conditional_control_insts         1685                       # number of instructions that are conditional controls
system.cpu.num_fp_alu_accesses                      0                       # Number of float alu accesses
system.cpu.num_fp_insts                             0                       # number of float instructions
system.cpu.num_fp_register_reads                    0                       # number of times the floating registers were read
system.cpu.num_fp_register_writes                   0                       # number of times the floating registers were written
system.cpu.num_func_calls                         523                       # number of times a function call or return occured
system.cpu.num_idle_cycles                   0.002000                       # Number of idle cycles
system.cpu.num_int_alu_accesses                 11775                       # Number of integer alu accesses
system.cpu.num_int_insts                        11775                       # number of integer instructions
system.cpu.num_int_register_reads               19252                       # number of times the integer registers were read
system.cpu.num_int_register_writes               7744                       # number of times the integer registers were written
system.cpu.num_load_insts                        2334                       # Number of load instructions
system.cpu.num_mem_refs                          4765                       # number of memory refs
system.cpu.num_store_insts                       2431                       # Number of store instructions
system.cpu.num_vec_alu_accesses                     0                       # Number of vector alu accesses
system.cpu.num_vec_insts                            0                       # number of vector instructions
system.cpu.num_vec_register_reads                  20                       # number of times the vector registers were read
system.cpu.num_vec_register_writes                  4                       # number of times the vector registers were written
system.cpu.op_class::No_OpClass                     0      0.00%      0.00% # Class of executed instruction
system.cpu.op_class::IntAlu                      8881     64.91%     64.91% # Class of executed instruction
system.cpu.op_class::IntMult                       37      0.27%     65.18% # Class of executed instruction
system.cpu.op_class::IntDiv                         0      0.00%     65.18% # Class of executed instruction
system.cpu.op_class::FloatAdd                       0      0.00%     65.18% # Class of executed instruction
system.cpu.op_class::FloatCmp                       0      0.00%     65.18% # Class of executed instruction
system.cpu.op_class::FloatCvt                       0      0.00%     65.18% # Class of executed instruction
system.cpu.op_class::FloatMult                      0      0.00%     65.18% # Class of executed instruction
system.cpu.op_class::FloatMultAcc                   0      0.00%     65.18% # Class of executed instruction
system.cpu.op_class::FloatDiv                       0      0.00%     65.18% # Class of executed instruction
system.cpu.op_class::FloatMisc                      0      0.00%     65.18% # Class of executed instruction
system.cpu.op_class::FloatSqrt                      0      0.00%     65.18% # Class of executed instruction
system.cpu.op_class::SimdAdd                        0      0.00%     65.18% # Class of executed instruction
system.cpu.op_class::SimdAddAcc                     0      0.00%     65.18% # Class of executed instruction
system.cpu.op_class::SimdAlu                        0      0.00%     65.18% # Class of executed instruction
system.cpu.op_class::SimdCmp                        0      0.00%     65.18% # Class of executed instruction
system.cpu.op_class::SimdCvt                        0      0.00%     65.18% # Class of executed instruction
system.cpu.op_class::SimdMisc                       0      0.00%     65.18% # Class of executed instruction
system.cpu.op_class::SimdMult                       0      0.00%     65.18% # Class of executed instruction
system.cpu.op_class::SimdMultAcc                    0      0.00%     65.18% # Class of executed instruction
system.cpu.op_class::SimdShift                      0      0.00%     65.18% # Class of executed instruction
system.cpu.op_class::SimdShiftAcc                   0      0.00%     65.18% # Class of executed instruction
system.cpu.op_class::SimdDiv                        0      0.00%     65.18% # Class of executed instruction
system.cpu.op_class::SimdSqrt                       0      0.00%     65.18% # Class of executed instruction
system.cpu.op_class::SimdFloatAdd                   0      0.00%     65.18% # Class of executed instruction
system.cpu.op_class::SimdFloatAlu                   0      0.00%     65.18% # Class of executed instruction
system.cpu.op_class::SimdFloatCmp                   0      0.00%     65.18% # Class of executed instruction
system.cpu.op_class::SimdFloatCvt                   0      0.00%     65.18% # Class of executed instruction
system.cpu.op_class::SimdFloatDiv                   0      0.00%     65.18% # Class of executed instruction
system.cpu.op_class::SimdFloatMisc                  0      0.00%     65.18% # Class of executed instruction
system.cpu.op_class::SimdFloatMult                  0      0.00%     65.18% # Class of executed instruction
system.cpu.op_class::SimdFloatMultAcc               0      0.00%     65.18% # Class of executed instruction
system.cpu.op_class::SimdFloatSqrt                  0      0.00%     65.18% # Class of executed instruction
system.cpu.op_class::SimdReduceAdd                  0      0.00%     65.18% # Class of executed instruction
system.cpu.op_class::SimdReduceAlu                  0      0.00%     65.18% # Class of executed instruction
system.cpu.op_class::SimdReduceCmp                  0      0.00%     65.18% # Class of executed instruction
system.cpu.op_class::SimdFloatReduceAdd             0      0.00%     65.18% # Class of executed instruction
system.cpu.op_class::SimdFloatReduceCmp             0      0.00%     65.18% # Class of executed instruction
system.cpu.op_class::SimdAes                        0      0.00%     65.18% # Class of executed instruction
system.cpu.op_class::SimdAesMix                     0      0.00%     65.18% # Class of executed instruction
system.cpu.op_class::SimdSha1Hash                   0      0.00%     65.18% # Class of executed instruction
system.cpu.op_class::SimdSha1Hash2                  0      0.00%     65.18% # Class of executed instruction
system.cpu.op_class::SimdSha256Hash                 0      0.00%     65.18% # Class of executed instruction
system.cpu.op_class::SimdSha256Hash2                0      0.00%     65.18% # Class of executed instruction
system.cpu.op_class::SimdShaSigma2                  0      0.00%     65.18% # Class of executed instruction
system.cpu.op_class::SimdShaSigma3                  0      0.00%     65.18% # Class of executed instruction
system.cpu.op_class::SimdPredAlu                    0      0.00%     65.18% # Class of executed instruction
system.cpu.op_class::MemRead                     2334     17.06%     82.23% # Class of executed instruction
system.cpu.op_class::MemWrite                    2431     17.77%    100.00% # Class of executed instruction
system.cpu.op_class::FloatMemRead                   0      0.00%    100.00% # Class of executed instruction
system.cpu.op_class::FloatMemWrite                  0      0.00%    100.00% # Class of executed instruction
system.cpu.op_class::IprAccess                      0      0.00%    100.00% # Class of executed instruction
system.cpu.op_class::InstPrefetch                   0      0.00%    100.00% # Class of executed instruction
system.cpu.op_class::total                      13683                       # Class of executed instruction
system.cpu.workload.numSyscalls                    20                       # Number of system calls
system.membus.snoop_filter.hit_multi_requests            1                       # Number of requests hitting in the snoop filter with multiple (>1) holders of the requested data.
system.membus.snoop_filter.hit_multi_snoops            0                       # Number of snoops hitting in the snoop filter with multiple (>1) holders of the requested data.
system.membus.snoop_filter.hit_single_requests           31                       # Number of requests hitting in the snoop filter with a single holder of the requested data.
system.membus.snoop_filter.hit_single_snoops            0                       # Number of snoops hitting in the snoop filter with a single holder of the requested data.
system.membus.snoop_filter.tot_requests           410                       # Total number of requests made to the snoop filter.
system.membus.snoop_filter.tot_snoops               0                       # Total number of snoops made to the snoop filter.
system.membus.pwrStateResidencyTicks::UNDEFINED     39281000                       # Cumulative time (in ticks) in various power states
system.membus.trans_dist::ReadResp                329                       # Transaction distribution
system.membus.trans_dist::WritebackClean           22                       # Transaction distribution
system.membus.trans_dist::ReadExReq                59                       # Transaction distribution
system.membus.trans_dist::ReadExResp               59                       # Transaction distribution
system.membus.trans_dist::ReadCleanReq            257                       # Transaction distribution
system.membus.trans_dist::ReadSharedReq            72                       # Transaction distribution
system.membus.pkt_count_system.cpu.icache.mem_side::system.mem_ctrls.port          536                       # Packet count per connected master and slave (bytes)
system.membus.pkt_count_system.cpu.dcache.mem_side::system.mem_ctrls.port          262                       # Packet count per connected master and slave (bytes)
system.membus.pkt_count::total                    798                       # Packet count per connected master and slave (bytes)
system.membus.pkt_size_system.cpu.icache.mem_side::system.mem_ctrls.port        17856                       # Cumulative packet size per connected master and slave (bytes)
system.membus.pkt_size_system.cpu.dcache.mem_side::system.mem_ctrls.port         8384                       # Cumulative packet size per connected master and slave (bytes)
system.membus.pkt_size::total                   26240                       # Cumulative packet size per connected master and slave (bytes)
system.membus.snoops                                0                       # Total snoops (count)
system.membus.snoopTraffic                          0                       # Total snoop traffic (bytes)
system.membus.snoop_fanout::samples               388                       # Request fanout histogram
system.membus.snoop_fanout::mean             0.025773                       # Request fanout histogram
system.membus.snoop_fanout::stdev            0.158663                       # Request fanout histogram
system.membus.snoop_fanout::underflows              0      0.00%      0.00% # Request fanout histogram
system.membus.snoop_fanout::0                     378     97.42%     97.42% # Request fanout histogram
system.membus.snoop_fanout::1                      10      2.58%    100.00% # Request fanout histogram
system.membus.snoop_fanout::2                       0      0.00%    100.00% # Request fanout histogram
system.membus.snoop_fanout::overflows               0      0.00%    100.00% # Request fanout histogram
system.membus.snoop_fanout::min_value               0                       # Request fanout histogram
system.membus.snoop_fanout::max_value               1                       # Request fanout histogram
system.membus.snoop_fanout::total                 388                       # Request fanout histogram
system.membus.reqLayer0.occupancy              505000                       # Layer occupancy (ticks)
system.membus.reqLayer0.utilization               1.3                       # Layer utilization (%)
system.membus.respLayer1.occupancy            1336958                       # Layer occupancy (ticks)
system.membus.respLayer1.utilization              3.4                       # Layer utilization (%)
system.membus.respLayer2.occupancy             681850                       # Layer occupancy (ticks)
system.membus.respLayer2.utilization              1.7                       # Layer utilization (%)
system.voltage_domain.voltage                       1                       # Voltage in Volts
system.clk_domain.clock                          1000                       # Clock period in ticks
system.cpu_voltage_domain.voltage                   1                       # Voltage in Volts
system.mem_ctrls.pwrStateResidencyTicks::UNDEFINED     39281000                       # Cumulative time (in ticks) in various power states
system.mem_ctrls.bytes_read::.cpu.inst          16448                       # Number of bytes read from this memory
system.mem_ctrls.bytes_read::.cpu.data           8384                       # Number of bytes read from this memory
system.mem_ctrls.bytes_read::total              24832                       # Number of bytes read from this memory
system.mem_ctrls.bytes_inst_read::.cpu.inst        16448                       # Number of instructions bytes read from this memory
system.mem_ctrls.bytes_inst_read::total         16448                       # Number of instructions bytes read from this memory
system.mem_ctrls.num_reads::.cpu.inst             257                       # Number of read requests responded to by this memory
system.mem_ctrls.num_reads::.cpu.data             131                       # Number of read requests responded to by this memory
system.mem_ctrls.num_reads::total                 388                       # Number of read requests responded to by this memory
system.mem_ctrls.bw_read::.cpu.inst         418726611                       # Total read bandwidth from this memory (bytes/s)
system.mem_ctrls.bw_read::.cpu.data         213436521                       # Total read bandwidth from this memory (bytes/s)
system.mem_ctrls.bw_read::total             632163132                       # Total read bandwidth from this memory (bytes/s)
system.mem_ctrls.bw_inst_read::.cpu.inst    418726611                       # Instruction read bandwidth from this memory (bytes/s)
system.mem_ctrls.bw_inst_read::total        418726611                       # Instruction read bandwidth from this memory (bytes/s)
system.mem_ctrls.bw_total::.cpu.inst        418726611                       # Total bandwidth to/from this memory (bytes/s)
system.mem_ctrls.bw_total::.cpu.data        213436521                       # Total bandwidth to/from this memory (bytes/s)
system.mem_ctrls.bw_total::total            632163132                       # Total bandwidth to/from this memory (bytes/s)
system.mem_ctrls.avgPriority_.writebacks::samples        21.00                       # Average QoS priority value for accepted requests
system.mem_ctrls.avgPriority_.cpu.inst::samples       254.00                       # Average QoS priority value for accepted requests
system.mem_ctrls.avgPriority_.cpu.data::samples       131.00                       # Average QoS priority value for accepted requests
system.mem_ctrls.priorityMinLatency      0.000000016842                       # per QoS priority minimum request to response latency (s)
system.mem_ctrls.priorityMaxLatency      0.000000545932                       # per QoS priority maximum request to response latency (s)
system.mem_ctrls.numReadWriteTurnArounds            0                       # Number of turnarounds from READ to WRITE
system.mem_ctrls.numWriteReadTurnArounds            0                       # Number of turnarounds from WRITE to READ
system.mem_ctrls.numStayReadState                 801                       # Number of times bus staying in READ state
system.mem_ctrls.numStayWriteState                  0                       # Number of times bus staying in WRITE state
system.mem_ctrls.readReqs                         388                       # Number of read requests accepted
system.mem_ctrls.writeReqs                         21                       # Number of write requests accepted
system.mem_ctrls.readBursts                       388                       # Number of DRAM read bursts, including those serviced by the write queue
system.mem_ctrls.writeBursts                       21                       # Number of DRAM write bursts, including those merged in the write queue
system.mem_ctrls.servicedByWrQ                      3                       # Number of DRAM read bursts serviced by the write queue
system.mem_ctrls.mergedWrBursts                     0                       # Number of DRAM write bursts merged with an existing one
system.mem_ctrls.neitherReadNorWriteReqs            0                       # Number of requests that are neither read nor write
system.mem_ctrls.perBankRdBursts::0                39                       # Per bank write bursts
system.mem_ctrls.perBankRdBursts::1                 6                       # Per bank write bursts
system.mem_ctrls.perBankRdBursts::2                22                       # Per bank write bursts
system.mem_ctrls.perBankRdBursts::3                31                       # Per bank write bursts
system.mem_ctrls.perBankRdBursts::4                15                       # Per bank write bursts
system.mem_ctrls.perBankRdBursts::5                32                       # Per bank write bursts
system.mem_ctrls.perBankRdBursts::6                21                       # Per bank write bursts
system.mem_ctrls.perBankRdBursts::7                26                       # Per bank write bursts
system.mem_ctrls.perBankRdBursts::8                13                       # Per bank write bursts
system.mem_ctrls.perBankRdBursts::9                43                       # Per bank write bursts
system.mem_ctrls.perBankRdBursts::10                1                       # Per bank write bursts
system.mem_ctrls.perBankRdBursts::11                1                       # Per bank write bursts
system.mem_ctrls.perBankRdBursts::12               44                       # Per bank write bursts
system.mem_ctrls.perBankRdBursts::13               51                       # Per bank write bursts
system.mem_ctrls.perBankRdBursts::14               32                       # Per bank write bursts
system.mem_ctrls.perBankRdBursts::15                8                       # Per bank write bursts
system.mem_ctrls.perBankWrBursts::0                 0                       # Per bank write bursts
system.mem_ctrls.perBankWrBursts::1                 0                       # Per bank write bursts
system.mem_ctrls.perBankWrBursts::2                 0                       # Per bank write bursts
system.mem_ctrls.perBankWrBursts::3                 0                       # Per bank write bursts
system.mem_ctrls.perBankWrBursts::4                 0                       # Per bank write bursts
system.mem_ctrls.perBankWrBursts::5                 0                       # Per bank write bursts
system.mem_ctrls.perBankWrBursts::6                 0                       # Per bank write bursts
system.mem_ctrls.perBankWrBursts::7                 0                       # Per bank write bursts
system.mem_ctrls.perBankWrBursts::8                 0                       # Per bank write bursts
system.mem_ctrls.perBankWrBursts::9                 0                       # Per bank write bursts
system.mem_ctrls.perBankWrBursts::10                0                       # Per bank write bursts
system.mem_ctrls.perBankWrBursts::11                0                       # Per bank write bursts
system.mem_ctrls.perBankWrBursts::12                0                       # Per bank write bursts
system.mem_ctrls.perBankWrBursts::13                0                       # Per bank write bursts
system.mem_ctrls.perBankWrBursts::14                0                       # Per bank write bursts
system.mem_ctrls.perBankWrBursts::15                0                       # Per bank write bursts
system.mem_ctrls.avgRdQLen                       1.00                       # Average read queue length when enqueuing
system.mem_ctrls.avgWrQLen                       4.55                       # Average write queue length when enqueuing
system.mem_ctrls.totQLat                      2379796                       # Total ticks spent queuing
system.mem_ctrls.totBusLat                    1444520                       # Total ticks spent in databus transfers
system.mem_ctrls.totMemAccLat                 8863966                       # Total ticks spent from burst creation until serviced by the DRAM
system.mem_ctrls.avgQLat                      6181.29                       # Average queueing delay per DRAM burst
system.mem_ctrls.avgBusLat                    3752.00                       # Average bus latency per DRAM burst
system.mem_ctrls.avgMemAccLat                23023.29                       # Average memory access latency per DRAM burst
system.mem_ctrls.numRdRetry                         0                       # Number of times read queue was full causing retry
system.mem_ctrls.numWrRetry                         0                       # Number of times write queue was full causing retry
system.mem_ctrls.readRowHits                      303                       # Number of row buffer hits during reads
system.mem_ctrls.writeRowHits                       0                       # Number of row buffer hits during writes
system.mem_ctrls.readRowHitRate                 78.70                       # Row buffer hit rate for reads
system.mem_ctrls.writeRowHitRate                 0.00                       # Row buffer hit rate for writes
system.mem_ctrls.readPktSize::0                     0                       # Read request sizes (log2)
system.mem_ctrls.readPktSize::1                     0                       # Read request sizes (log2)
system.mem_ctrls.readPktSize::2                     0                       # Read request sizes (log2)
system.mem_ctrls.readPktSize::3                     0                       # Read request sizes (log2)
system.mem_ctrls.readPktSize::4                     0                       # Read request sizes (log2)
system.mem_ctrls.readPktSize::5                     0                       # Read request sizes (log2)
system.mem_ctrls.readPktSize::6                   388                       # Read request sizes (log2)
system.mem_ctrls.writePktSize::0                    0                       # Write request sizes (log2)
system.mem_ctrls.writePktSize::1                    0                       # Write request sizes (log2)
system.mem_ctrls.writePktSize::2                    0                       # Write request sizes (log2)
system.mem_ctrls.writePktSize::3                    0                       # Write request sizes (log2)
system.mem_ctrls.writePktSize::4                    0                       # Write request sizes (log2)
system.mem_ctrls.writePktSize::5                    0                       # Write request sizes (log2)
system.mem_ctrls.writePktSize::6                   21                       # Write request sizes (log2)
system.mem_ctrls.rdQLenPdf::0                     383                       # What read queue length does an incoming req see
system.mem_ctrls.rdQLenPdf::1                       1                       # What read queue length does an incoming req see
system.mem_ctrls.rdQLenPdf::2                       1                       # What read queue length does an incoming req see
system.mem_ctrls.rdQLenPdf::3                       0                       # What read queue length does an incoming req see
system.mem_ctrls.rdQLenPdf::4                       0                       # What read queue length does an incoming req see
system.mem_ctrls.rdQLenPdf::5                       0                       # What read queue length does an incoming req see
system.mem_ctrls.rdQLenPdf::6                       0                       # What read queue length does an incoming req see
system.mem_ctrls.rdQLenPdf::7                       0                       # What read queue length does an incoming req see
system.mem_ctrls.rdQLenPdf::8                       0                       # What read queue length does an incoming req see
system.mem_ctrls.rdQLenPdf::9                       0                       # What read queue length does an incoming req see
system.mem_ctrls.rdQLenPdf::10                      0                       # What read queue length does an incoming req see
system.mem_ctrls.rdQLenPdf::11                      0                       # What read queue length does an incoming req see
system.mem_ctrls.rdQLenPdf::12                      0                       # What read queue length does an incoming req see
system.mem_ctrls.rdQLenPdf::13                      0                       # What read queue length does an incoming req see
system.mem_ctrls.rdQLenPdf::14                      0                       # What read queue length does an incoming req see
system.mem_ctrls.rdQLenPdf::15                      0                       # What read queue length does an incoming req see
system.mem_ctrls.rdQLenPdf::16                      0                       # What read queue length does an incoming req see
system.mem_ctrls.rdQLenPdf::17                      0                       # What read queue length does an incoming req see
system.mem_ctrls.rdQLenPdf::18                      0                       # What read queue length does an incoming req see
system.mem_ctrls.rdQLenPdf::19                      0                       # What read queue length does an incoming req see
system.mem_ctrls.rdQLenPdf::20                      0                       # What read queue length does an incoming req see
system.mem_ctrls.rdQLenPdf::21                      0                       # What read queue length does an incoming req see
system.mem_ctrls.rdQLenPdf::22                      0                       # What read queue length does an incoming req see
system.mem_ctrls.rdQLenPdf::23                      0                       # What read queue length does an incoming req see
system.mem_ctrls.rdQLenPdf::24                      0                       # What read queue length does an incoming req see
system.mem_ctrls.rdQLenPdf::25                      0                       # What read queue length does an incoming req see
system.mem_ctrls.rdQLenPdf::26                      0                       # What read queue length does an incoming req see
system.mem_ctrls.rdQLenPdf::27                      0                       # What read queue length does an incoming req see
system.mem_ctrls.rdQLenPdf::28                      0                       # What read queue length does an incoming req see
system.mem_ctrls.rdQLenPdf::29                      0                       # What read queue length does an incoming req see
system.mem_ctrls.rdQLenPdf::30                      0                       # What read queue length does an incoming req see
system.mem_ctrls.rdQLenPdf::31                      0                       # What read queue length does an incoming req see
system.mem_ctrls.wrQLenPdf::0                       1                       # What write queue length does an incoming req see
system.mem_ctrls.wrQLenPdf::1                       1                       # What write queue length does an incoming req see
system.mem_ctrls.wrQLenPdf::2                       1                       # What write queue length does an incoming req see
system.mem_ctrls.wrQLenPdf::3                       1                       # What write queue length does an incoming req see
system.mem_ctrls.wrQLenPdf::4                       1                       # What write queue length does an incoming req see
system.mem_ctrls.wrQLenPdf::5                       1                       # What write queue length does an incoming req see
system.mem_ctrls.wrQLenPdf::6                       1                       # What write queue length does an incoming req see
system.mem_ctrls.wrQLenPdf::7                       1                       # What write queue length does an incoming req see
system.mem_ctrls.wrQLenPdf::8                       1                       # What write queue length does an incoming req see
system.mem_ctrls.wrQLenPdf::9                       1                       # What write queue length does an incoming req see
system.mem_ctrls.wrQLenPdf::10                      1                       # What write queue length does an incoming req see
system.mem_ctrls.wrQLenPdf::11                      1                       # What write queue length does an incoming req see
system.mem_ctrls.wrQLenPdf::12                      1                       # What write queue length does an incoming req see
system.mem_ctrls.wrQLenPdf::13                      1                       # What write queue length does an incoming req see
system.mem_ctrls.wrQLenPdf::14                      1                       # What write queue length does an incoming req see
system.mem_ctrls.wrQLenPdf::15                      1                       # What write queue length does an incoming req see
system.mem_ctrls.wrQLenPdf::16                      1                       # What write queue length does an incoming req see
system.mem_ctrls.wrQLenPdf::17                      1                       # What write queue length does an incoming req see
system.mem_ctrls.wrQLenPdf::18                      1                       # What write queue length does an incoming req see
system.mem_ctrls.wrQLenPdf::19                      1                       # What write queue length does an incoming req see
system.mem_ctrls.wrQLenPdf::20                      1                       # What write queue length does an incoming req see
system.mem_ctrls.wrQLenPdf::21                      0                       # What write queue length does an incoming req see
system.mem_ctrls.wrQLenPdf::22                      0                       # What write queue length does an incoming req see
system.mem_ctrls.wrQLenPdf::23                      0                       # What write queue length does an incoming req see
system.mem_ctrls.wrQLenPdf::24                      0                       # What write queue length does an incoming req see
system.mem_ctrls.wrQLenPdf::25                      0                       # What write queue length does an incoming req see
system.mem_ctrls.wrQLenPdf::26                      0                       # What write queue length does an incoming req see
system.mem_ctrls.wrQLenPdf::27                      0                       # What write queue length does an incoming req see
system.mem_ctrls.wrQLenPdf::28                      0                       # What write queue length does an incoming req see
system.mem_ctrls.wrQLenPdf::29                      0                       # What write queue length does an incoming req see
system.mem_ctrls.wrQLenPdf::30                      0                       # What write queue length does an incoming req see
system.mem_ctrls.wrQLenPdf::31                      0                       # What write queue length does an incoming req see
system.mem_ctrls.wrQLenPdf::32                      0                       # What write queue length does an incoming req see
system.mem_ctrls.wrQLenPdf::33                      0                       # What write queue length does an incoming req see
system.mem_ctrls.wrQLenPdf::34                      0                       # What write queue length does an incoming req see
system.mem_ctrls.wrQLenPdf::35                      0                       # What write queue length does an incoming req see
system.mem_ctrls.wrQLenPdf::36                      0                       # What write queue length does an incoming req see
system.mem_ctrls.wrQLenPdf::37                      0                       # What write queue length does an incoming req see
system.mem_ctrls.wrQLenPdf::38                      0                       # What write queue length does an incoming req see
system.mem_ctrls.wrQLenPdf::39                      0                       # What write queue length does an incoming req see
system.mem_ctrls.wrQLenPdf::40                      0                       # What write queue length does an incoming req see
system.mem_ctrls.wrQLenPdf::41                      0                       # What write queue length does an incoming req see
system.mem_ctrls.wrQLenPdf::42                      0                       # What write queue length does an incoming req see
system.mem_ctrls.wrQLenPdf::43                      0                       # What write queue length does an incoming req see
system.mem_ctrls.wrQLenPdf::44                      0                       # What write queue length does an incoming req see
system.mem_ctrls.wrQLenPdf::45                      0                       # What write queue length does an incoming req see
system.mem_ctrls.wrQLenPdf::46                      0                       # What write queue length does an incoming req see
system.mem_ctrls.wrQLenPdf::47                      0                       # What write queue length does an incoming req see
system.mem_ctrls.wrQLenPdf::48                      0                       # What write queue length does an incoming req see
system.mem_ctrls.wrQLenPdf::49                      0                       # What write queue length does an incoming req see
system.mem_ctrls.wrQLenPdf::50                      0                       # What write queue length does an incoming req see
system.mem_ctrls.wrQLenPdf::51                      0                       # What write queue length does an incoming req see
system.mem_ctrls.wrQLenPdf::52                      0                       # What write queue length does an incoming req see
system.mem_ctrls.wrQLenPdf::53                      0                       # What write queue length does an incoming req see
system.mem_ctrls.wrQLenPdf::54                      0                       # What write queue length does an incoming req see
system.mem_ctrls.wrQLenPdf::55                      0                       # What write queue length does an incoming req see
system.mem_ctrls.wrQLenPdf::56                      0                       # What write queue length does an incoming req see
system.mem_ctrls.wrQLenPdf::57                      0                       # What write queue length does an incoming req see
system.mem_ctrls.wrQLenPdf::58                      0                       # What write queue length does an incoming req see
system.mem_ctrls.wrQLenPdf::59                      0                       # What write queue length does an incoming req see
system.mem_ctrls.wrQLenPdf::60                      0                       # What write queue length does an incoming req see
system.mem_ctrls.wrQLenPdf::61                      0                       # What write queue length does an incoming req see
system.mem_ctrls.wrQLenPdf::62                      0                       # What write queue length does an incoming req see
system.mem_ctrls.wrQLenPdf::63                      0                       # What write queue length does an incoming req see
system.mem_ctrls.bytesPerActivate::samples           81                       # Bytes accessed per row activation
system.mem_ctrls.bytesPerActivate::mean    303.407407                       # Bytes accessed per row activation
system.mem_ctrls.bytesPerActivate::gmean   191.551225                       # Bytes accessed per row activation
system.mem_ctrls.bytesPerActivate::stdev   305.055478                       # Bytes accessed per row activation
system.mem_ctrls.bytesPerActivate::0-127           25     30.86%     30.86% # Bytes accessed per row activation
system.mem_ctrls.bytesPerActivate::128-255           22     27.16%     58.02% # Bytes accessed per row activation
system.mem_ctrls.bytesPerActivate::256-383           13     16.05%     74.07% # Bytes accessed per row activation
system.mem_ctrls.bytesPerActivate::384-511            2      2.47%     76.54% # Bytes accessed per row activation
system.mem_ctrls.bytesPerActivate::512-639            4      4.94%     81.48% # Bytes accessed per row activation
system.mem_ctrls.bytesPerActivate::640-767            4      4.94%     86.42% # Bytes accessed per row activation
system.mem_ctrls.bytesPerActivate::768-895            2      2.47%     88.89% # Bytes accessed per row activation
system.mem_ctrls.bytesPerActivate::896-1023            3      3.70%     92.59% # Bytes accessed per row activation
system.mem_ctrls.bytesPerActivate::1024-1151            6      7.41%    100.00% # Bytes accessed per row activation
system.mem_ctrls.bytesPerActivate::total           81                       # Bytes accessed per row activation
system.mem_ctrls.bytesReadDRAM                  24640                       # Total number of bytes read from DRAM
system.mem_ctrls.bytesReadWrQ                     192                       # Total number of bytes read from write queue
system.mem_ctrls.bytesWritten                       0                       # Total number of bytes written to DRAM
system.mem_ctrls.bytesReadSys                   24832                       # Total read bytes from the system interface side
system.mem_ctrls.bytesWrittenSys                 1344                       # Total written bytes from the system interface side
system.mem_ctrls.avgRdBW                       627.28                       # Average DRAM read bandwidth in MiByte/s
system.mem_ctrls.avgWrBW                         0.00                       # Average achieved write bandwidth in MiByte/s
system.mem_ctrls.avgRdBWSys                    632.16                       # Average system read bandwidth in MiByte/s
system.mem_ctrls.avgWrBWSys                     34.22                       # Average system write bandwidth in MiByte/s
system.mem_ctrls.peakBW                      17057.00                       # Theoretical peak bandwidth in MiByte/s
system.mem_ctrls.busUtil                         3.68                       # Data bus utilization in percentage
system.mem_ctrls.busUtilRead                     3.68                       # Data bus utilization in percentage for reads
system.mem_ctrls.busUtilWrite                    0.00                       # Data bus utilization in percentage for writes
system.mem_ctrls.totGap                      38962000                       # Total gap between requests
system.mem_ctrls.avgGap                      95261.61                       # Average gap between requests
system.mem_ctrls.masterReadBytes::.cpu.inst        16256                       # Per-master bytes read from memory
system.mem_ctrls.masterReadBytes::.cpu.data         8384                       # Per-master bytes read from memory
system.mem_ctrls.masterReadRate::.cpu.inst 413838751.559278011322                       # Per-master bytes read from memory rate (Bytes/sec)
system.mem_ctrls.masterReadRate::.cpu.data 213436521.473485916853                       # Per-master bytes read from memory rate (Bytes/sec)
system.mem_ctrls.masterReadAccesses::.cpu.inst          257                       # Per-master read serviced memory accesses
system.mem_ctrls.masterReadAccesses::.cpu.data          131                       # Per-master read serviced memory accesses
system.mem_ctrls.masterWriteAccesses::.writebacks           21                       # Per-master write serviced memory accesses
system.mem_ctrls.masterReadTotalLat::.cpu.inst      6101042                       # Per-master read total memory access latency
system.mem_ctrls.masterReadTotalLat::.cpu.data      2762924                       # Per-master read total memory access latency
system.mem_ctrls.masterReadAvgLat::.cpu.inst     23739.46                       # Per-master read average memory access latency
system.mem_ctrls.masterReadAvgLat::.cpu.data     21091.02                       # Per-master read average memory access latency
system.mem_ctrls.masterWriteAvgLat::.writebacks         0.00                       # Per-master write average memory access latency
system.mem_ctrls.pageHitRate                    74.63                       # Row buffer hit rate, read and write combined
system.mem_ctrls.rank1.actEnergy         453031.488000                       # Energy for activate commands per rank (pJ)
system.mem_ctrls.rank1.preEnergy         218411.424000                       # Energy for precharge commands per rank (pJ)
system.mem_ctrls.rank1.readEnergy        1277375.904000                       # Energy for read commands per rank (pJ)
system.mem_ctrls.rank1.writeEnergy                  0                       # Energy for write commands per rank (pJ)
system.mem_ctrls.rank1.refreshEnergy     3223043.040000                       # Energy for refresh commands per rank (pJ)
system.mem_ctrls.rank1.actBackEnergy     17478857.088000                       # Energy for active background per rank (pJ)
system.mem_ctrls.rank1.preBackEnergy     2742884.592000                       # Energy for precharge background per rank (pJ)
system.mem_ctrls.rank1.actPowerDownEnergy            0                       # Energy for active power-down per rank (pJ)
system.mem_ctrls.rank1.prePowerDownEnergy            0                       # Energy for precharge power-down per rank (pJ)
system.mem_ctrls.rank1.selfRefreshEnergy            0                       # Energy for self refresh per rank (pJ)
system.mem_ctrls.rank1.totalEnergy       25393603.536000                       # Total energy per rank (pJ)
system.mem_ctrls.rank1.averagePower        646.460211                       # Core power per rank (mW)
system.mem_ctrls.rank1.totalIdleTime                0                       # Total Idle time Per DRAM Rank
system.mem_ctrls.rank1.memoryStateTime::IDLE      6050360                       # Time in different power states
system.mem_ctrls.rank1.memoryStateTime::REF      1300000                       # Time in different power states
system.mem_ctrls.rank1.memoryStateTime::SREF            0                       # Time in different power states
system.mem_ctrls.rank1.memoryStateTime::PRE_PDN            0                       # Time in different power states
system.mem_ctrls.rank1.memoryStateTime::ACT     31930640                       # Time in different power states
system.mem_ctrls.rank1.memoryStateTime::ACT_PDN            0                       # Time in different power states
system.mem_ctrls.rank0.actEnergy         410889.024000                       # Energy for activate commands per rank (pJ)
system.mem_ctrls.rank0.preEnergy         202810.608000                       # Energy for precharge commands per rank (pJ)
system.mem_ctrls.rank0.readEnergy        1270757.376000                       # Energy for read commands per rank (pJ)
system.mem_ctrls.rank0.writeEnergy                  0                       # Energy for write commands per rank (pJ)
system.mem_ctrls.rank0.refreshEnergy     3223043.040000                       # Energy for refresh commands per rank (pJ)
system.mem_ctrls.rank0.actBackEnergy     17494210.272000                       # Energy for active background per rank (pJ)
system.mem_ctrls.rank0.preBackEnergy     2729973.960000                       # Energy for precharge background per rank (pJ)
system.mem_ctrls.rank0.actPowerDownEnergy            0                       # Energy for active power-down per rank (pJ)
system.mem_ctrls.rank0.prePowerDownEnergy            0                       # Energy for precharge power-down per rank (pJ)
system.mem_ctrls.rank0.selfRefreshEnergy            0                       # Energy for self refresh per rank (pJ)
system.mem_ctrls.rank0.totalEnergy       25331684.280000                       # Total energy per rank (pJ)
system.mem_ctrls.rank0.averagePower        644.883895                       # Core power per rank (mW)
system.mem_ctrls.rank0.totalIdleTime                0                       # Total Idle time Per DRAM Rank
system.mem_ctrls.rank0.memoryStateTime::IDLE      6021310                       # Time in different power states
system.mem_ctrls.rank0.memoryStateTime::REF      1300000                       # Time in different power states
system.mem_ctrls.rank0.memoryStateTime::SREF            0                       # Time in different power states
system.mem_ctrls.rank0.memoryStateTime::PRE_PDN            0                       # Time in different power states
system.mem_ctrls.rank0.memoryStateTime::ACT     31959690                       # Time in different power states
system.mem_ctrls.rank0.memoryStateTime::ACT_PDN            0                       # Time in different power states
system.cpu_clk_domain.clock                       500                       # Clock period in ticks
system.cpu.numPwrStateTransitions                   1                       # Number of power state transitions
system.cpu.pwrStateResidencyTicks::ON        39281000                       # Cumulative time (in ticks) in various power states
system.cpu.icache.pwrStateResidencyTicks::UNDEFINED     39281000                       # Cumulative time (in ticks) in various power states
system.cpu.icache.demand_hits::.cpu.inst        12870                       # number of demand (read+write) hits
system.cpu.icache.demand_hits::total            12870                       # number of demand (read+write) hits
system.cpu.icache.overall_hits::.cpu.inst        12870                       # number of overall hits
system.cpu.icache.overall_hits::total           12870                       # number of overall hits
system.cpu.icache.demand_misses::.cpu.inst          257                       # number of demand (read+write) misses
system.cpu.icache.demand_misses::total            257                       # number of demand (read+write) misses
system.cpu.icache.overall_misses::.cpu.inst          257                       # number of overall misses
system.cpu.icache.overall_misses::total           257                       # number of overall misses
system.cpu.icache.demand_miss_latency::.cpu.inst     14359500                       # number of demand (read+write) miss cycles
system.cpu.icache.demand_miss_latency::total     14359500                       # number of demand (read+write) miss cycles
system.cpu.icache.overall_miss_latency::.cpu.inst     14359500                       # number of overall miss cycles
system.cpu.icache.overall_miss_latency::total     14359500                       # number of overall miss cycles
system.cpu.icache.demand_accesses::.cpu.inst        13127                       # number of demand (read+write) accesses
system.cpu.icache.demand_accesses::total        13127                       # number of demand (read+write) accesses
system.cpu.icache.overall_accesses::.cpu.inst        13127                       # number of overall (read+write) accesses
system.cpu.icache.overall_accesses::total        13127                       # number of overall (read+write) accesses
system.cpu.icache.demand_miss_rate::.cpu.inst     0.019578                       # miss rate for demand accesses
system.cpu.icache.demand_miss_rate::total     0.019578                       # miss rate for demand accesses
system.cpu.icache.overall_miss_rate::.cpu.inst     0.019578                       # miss rate for overall accesses
system.cpu.icache.overall_miss_rate::total     0.019578                       # miss rate for overall accesses
system.cpu.icache.demand_avg_miss_latency::.cpu.inst 55873.540856                       # average overall miss latency
system.cpu.icache.demand_avg_miss_latency::total 55873.540856                       # average overall miss latency
system.cpu.icache.overall_avg_miss_latency::.cpu.inst 55873.540856                       # average overall miss latency
system.cpu.icache.overall_avg_miss_latency::total 55873.540856                       # average overall miss latency
system.cpu.icache.blocked_cycles::no_mshrs            0                       # number of cycles access was blocked
system.cpu.icache.blocked_cycles::no_targets            0                       # number of cycles access was blocked
system.cpu.icache.blocked::no_mshrs                 0                       # number of cycles access was blocked
system.cpu.icache.blocked::no_targets               0                       # number of cycles access was blocked
system.cpu.icache.avg_blocked_cycles::no_mshrs          nan                       # average number of cycles each access was blocked
system.cpu.icache.avg_blocked_cycles::no_targets          nan                       # average number of cycles each access was blocked
system.cpu.icache.writebacks::.writebacks           22                       # number of writebacks
system.cpu.icache.writebacks::total                22                       # number of writebacks
system.cpu.icache.demand_mshr_misses::.cpu.inst          257                       # number of demand (read+write) MSHR misses
system.cpu.icache.demand_mshr_misses::total          257                       # number of demand (read+write) MSHR misses
system.cpu.icache.overall_mshr_misses::.cpu.inst          257                       # number of overall MSHR misses
system.cpu.icache.overall_mshr_misses::total          257                       # number of overall MSHR misses
system.cpu.icache.demand_mshr_miss_latency::.cpu.inst     14102500                       # number of demand (read+write) MSHR miss cycles
system.cpu.icache.demand_mshr_miss_latency::total     14102500                       # number of demand (read+write) MSHR miss cycles
system.cpu.icache.overall_mshr_miss_latency::.cpu.inst     14102500                       # number of overall MSHR miss cycles
system.cpu.icache.overall_mshr_miss_latency::total     14102500                       # number of overall MSHR miss cycles
system.cpu.icache.demand_mshr_miss_rate::.cpu.inst     0.019578                       # mshr miss rate for demand accesses
system.cpu.icache.demand_mshr_miss_rate::total     0.019578                       # mshr miss rate for demand accesses
system.cpu.icache.overall_mshr_miss_rate::.cpu.inst     0.019578                       # mshr miss rate for overall accesses
system.cpu.icache.overall_mshr_miss_rate::total     0.019578                       # mshr miss rate for overall accesses
system.cpu.icache.demand_avg_mshr_miss_latency::.cpu.inst 54873.540856                       # average overall mshr miss latency
system.cpu.icache.demand_avg_mshr_miss_latency::total 54873.540856                       # average overall mshr miss latency
system.cpu.icache.overall_avg_mshr_miss_latency::.cpu.inst 54873.540856                       # average overall mshr miss latency
system.cpu.icache.overall_avg_mshr_miss_latency::total 54873.540856                       # average overall mshr miss latency
system.cpu.icache.replacements                     22                       # number of replacements
system.cpu.icache.ReadReq_hits::.cpu.inst        12870                       # number of ReadReq hits
system.cpu.icache.ReadReq_hits::total           12870                       # number of ReadReq hits
system.cpu.icache.ReadReq_misses::.cpu.inst          257                       # number of ReadReq misses
system.cpu.icache.ReadReq_misses::total           257                       # number of ReadReq misses
system.cpu.icache.ReadReq_miss_latency::.cpu.inst     14359500                       # number of ReadReq miss cycles
system.cpu.icache.ReadReq_miss_latency::total     14359500                       # number of ReadReq miss cycles
system.cpu.icache.ReadReq_accesses::.cpu.inst        13127                       # number of ReadReq accesses(hits+misses)
system.cpu.icache.ReadReq_accesses::total        13127                       # number of ReadReq accesses(hits+misses)
system.cpu.icache.ReadReq_miss_rate::.cpu.inst     0.019578                       # miss rate for ReadReq accesses
system.cpu.icache.ReadReq_miss_rate::total     0.019578                       # miss rate for ReadReq accesses
system.cpu.icache.ReadReq_avg_miss_latency::.cpu.inst 55873.540856                       # average ReadReq miss latency
system.cpu.icache.ReadReq_avg_miss_latency::total 55873.540856                       # average ReadReq miss latency
system.cpu.icache.ReadReq_mshr_misses::.cpu.inst          257                       # number of ReadReq MSHR misses
system.cpu.icache.ReadReq_mshr_misses::total          257                       # number of ReadReq MSHR misses
system.cpu.icache.ReadReq_mshr_miss_latency::.cpu.inst     14102500                       # number of ReadReq MSHR miss cycles
system.cpu.icache.ReadReq_mshr_miss_latency::total     14102500                       # number of ReadReq MSHR miss cycles
system.cpu.icache.ReadReq_mshr_miss_rate::.cpu.inst     0.019578                       # mshr miss rate for ReadReq accesses
system.cpu.icache.ReadReq_mshr_miss_rate::total     0.019578                       # mshr miss rate for ReadReq accesses
system.cpu.icache.ReadReq_avg_mshr_miss_latency::.cpu.inst 54873.540856                       # average ReadReq mshr miss latency
system.cpu.icache.ReadReq_avg_mshr_miss_latency::total 54873.540856                       # average ReadReq mshr miss latency
system.cpu.icache.tags.pwrStateResidencyTicks::UNDEFINED     39281000                       # Cumulative time (in ticks) in various power states
system.cpu.icache.tags.tagsinuse           144.234416                       # Cycle average of tags in use
system.cpu.icache.tags.total_refs               13127                       # Total number of references to valid blocks.
system.cpu.icache.tags.sampled_refs               257                       # Sample count of references to valid blocks.
system.cpu.icache.tags.avg_refs             51.077821                       # Average number of references to valid blocks.
system.cpu.icache.tags.warmup_cycle             74000                       # Cycle when the warmup percentage was hit.
system.cpu.icache.tags.occ_blocks::.cpu.inst   144.234416                       # Average occupied blocks per requestor
system.cpu.icache.tags.occ_percent::.cpu.inst     0.281708                       # Average percentage of cache occupancy
system.cpu.icache.tags.occ_percent::total     0.281708                       # Average percentage of cache occupancy
system.cpu.icache.tags.occ_task_id_blocks::1024          235                       # Occupied blocks per task id
system.cpu.icache.tags.age_task_id_blocks_1024::0           23                       # Occupied blocks per task id
system.cpu.icache.tags.age_task_id_blocks_1024::1          212                       # Occupied blocks per task id
system.cpu.icache.tags.occ_task_id_percent::1024     0.458984                       # Percentage of cache occupancy per task id
system.cpu.icache.tags.tag_accesses             26511                       # Number of tag accesses
system.cpu.icache.tags.data_accesses            26511                       # Number of data accesses
system.cpu.dtb.walker.pwrStateResidencyTicks::UNDEFINED     39281000                       # Cumulative time (in ticks) in various power states
system.cpu.dtb.stage2_mmu.stage2_tlb.walker.pwrStateResidencyTicks::UNDEFINED     39281000                       # Cumulative time (in ticks) in various power states
system.cpu.itb.walker.pwrStateResidencyTicks::UNDEFINED     39281000                       # Cumulative time (in ticks) in various power states
system.cpu.itb.stage2_mmu.stage2_tlb.walker.pwrStateResidencyTicks::UNDEFINED     39281000                       # Cumulative time (in ticks) in various power states
system.cpu.dcache.pwrStateResidencyTicks::UNDEFINED     39281000                       # Cumulative time (in ticks) in various power states
system.cpu.dcache.demand_hits::.cpu.data         4457                       # number of demand (read+write) hits
system.cpu.dcache.demand_hits::total             4457                       # number of demand (read+write) hits
system.cpu.dcache.overall_hits::.cpu.data         4473                       # number of overall hits
system.cpu.dcache.overall_hits::total            4473                       # number of overall hits
system.cpu.dcache.demand_misses::.cpu.data          126                       # number of demand (read+write) misses
system.cpu.dcache.demand_misses::total            126                       # number of demand (read+write) misses
system.cpu.dcache.overall_misses::.cpu.data          132                       # number of overall misses
system.cpu.dcache.overall_misses::total           132                       # number of overall misses
system.cpu.dcache.demand_miss_latency::.cpu.data      6650500                       # number of demand (read+write) miss cycles
system.cpu.dcache.demand_miss_latency::total      6650500                       # number of demand (read+write) miss cycles
system.cpu.dcache.overall_miss_latency::.cpu.data      6650500                       # number of overall miss cycles
system.cpu.dcache.overall_miss_latency::total      6650500                       # number of overall miss cycles
system.cpu.dcache.demand_accesses::.cpu.data         4583                       # number of demand (read+write) accesses
system.cpu.dcache.demand_accesses::total         4583                       # number of demand (read+write) accesses
system.cpu.dcache.overall_accesses::.cpu.data         4605                       # number of overall (read+write) accesses
system.cpu.dcache.overall_accesses::total         4605                       # number of overall (read+write) accesses
system.cpu.dcache.demand_miss_rate::.cpu.data     0.027493                       # miss rate for demand accesses
system.cpu.dcache.demand_miss_rate::total     0.027493                       # miss rate for demand accesses
system.cpu.dcache.overall_miss_rate::.cpu.data     0.028664                       # miss rate for overall accesses
system.cpu.dcache.overall_miss_rate::total     0.028664                       # miss rate for overall accesses
system.cpu.dcache.demand_avg_miss_latency::.cpu.data 52781.746032                       # average overall miss latency
system.cpu.dcache.demand_avg_miss_latency::total 52781.746032                       # average overall miss latency
system.cpu.dcache.overall_avg_miss_latency::.cpu.data 50382.575758                       # average overall miss latency
system.cpu.dcache.overall_avg_miss_latency::total 50382.575758                       # average overall miss latency
system.cpu.dcache.blocked_cycles::no_mshrs            0                       # number of cycles access was blocked
system.cpu.dcache.blocked_cycles::no_targets            0                       # number of cycles access was blocked
system.cpu.dcache.blocked::no_mshrs                 0                       # number of cycles access was blocked
system.cpu.dcache.blocked::no_targets               0                       # number of cycles access was blocked
system.cpu.dcache.avg_blocked_cycles::no_mshrs          nan                       # average number of cycles each access was blocked
system.cpu.dcache.avg_blocked_cycles::no_targets          nan                       # average number of cycles each access was blocked
system.cpu.dcache.demand_mshr_hits::.cpu.data            1                       # number of demand (read+write) MSHR hits
system.cpu.dcache.demand_mshr_hits::total            1                       # number of demand (read+write) MSHR hits
system.cpu.dcache.overall_mshr_hits::.cpu.data            1                       # number of overall MSHR hits
system.cpu.dcache.overall_mshr_hits::total            1                       # number of overall MSHR hits
system.cpu.dcache.demand_mshr_misses::.cpu.data          125                       # number of demand (read+write) MSHR misses
system.cpu.dcache.demand_mshr_misses::total          125                       # number of demand (read+write) MSHR misses
system.cpu.dcache.overall_mshr_misses::.cpu.data          130                       # number of overall MSHR misses
system.cpu.dcache.overall_mshr_misses::total          130                       # number of overall MSHR misses
system.cpu.dcache.demand_mshr_miss_latency::.cpu.data      6461500                       # number of demand (read+write) MSHR miss cycles
system.cpu.dcache.demand_mshr_miss_latency::total      6461500                       # number of demand (read+write) MSHR miss cycles
system.cpu.dcache.overall_mshr_miss_latency::.cpu.data      6790500                       # number of overall MSHR miss cycles
system.cpu.dcache.overall_mshr_miss_latency::total      6790500                       # number of overall MSHR miss cycles
system.cpu.dcache.demand_mshr_miss_rate::.cpu.data     0.027275                       # mshr miss rate for demand accesses
system.cpu.dcache.demand_mshr_miss_rate::total     0.027275                       # mshr miss rate for demand accesses
system.cpu.dcache.overall_mshr_miss_rate::.cpu.data     0.028230                       # mshr miss rate for overall accesses
system.cpu.dcache.overall_mshr_miss_rate::total     0.028230                       # mshr miss rate for overall accesses
system.cpu.dcache.demand_avg_mshr_miss_latency::.cpu.data        51692                       # average overall mshr miss latency
system.cpu.dcache.demand_avg_mshr_miss_latency::total        51692                       # average overall mshr miss latency
system.cpu.dcache.overall_avg_mshr_miss_latency::.cpu.data 52234.615385                       # average overall mshr miss latency
system.cpu.dcache.overall_avg_mshr_miss_latency::total 52234.615385                       # average overall mshr miss latency
system.cpu.dcache.replacements                      0                       # number of replacements
system.cpu.dcache.ReadReq_hits::.cpu.data         2177                       # number of ReadReq hits
system.cpu.dcache.ReadReq_hits::total            2177                       # number of ReadReq hits
system.cpu.dcache.ReadReq_misses::.cpu.data           67                       # number of ReadReq misses
system.cpu.dcache.ReadReq_misses::total            67                       # number of ReadReq misses
system.cpu.dcache.ReadReq_miss_latency::.cpu.data      3518500                       # number of ReadReq miss cycles
system.cpu.dcache.ReadReq_miss_latency::total      3518500                       # number of ReadReq miss cycles
system.cpu.dcache.ReadReq_accesses::.cpu.data         2244                       # number of ReadReq accesses(hits+misses)
system.cpu.dcache.ReadReq_accesses::total         2244                       # number of ReadReq accesses(hits+misses)
system.cpu.dcache.ReadReq_miss_rate::.cpu.data     0.029857                       # miss rate for ReadReq accesses
system.cpu.dcache.ReadReq_miss_rate::total     0.029857                       # miss rate for ReadReq accesses
system.cpu.dcache.ReadReq_avg_miss_latency::.cpu.data 52514.925373                       # average ReadReq miss latency
system.cpu.dcache.ReadReq_avg_miss_latency::total 52514.925373                       # average ReadReq miss latency
system.cpu.dcache.ReadReq_mshr_hits::.cpu.data            1                       # number of ReadReq MSHR hits
system.cpu.dcache.ReadReq_mshr_hits::total            1                       # number of ReadReq MSHR hits
system.cpu.dcache.ReadReq_mshr_misses::.cpu.data           66                       # number of ReadReq MSHR misses
system.cpu.dcache.ReadReq_mshr_misses::total           66                       # number of ReadReq MSHR misses
system.cpu.dcache.ReadReq_mshr_miss_latency::.cpu.data      3388500                       # number of ReadReq MSHR miss cycles
system.cpu.dcache.ReadReq_mshr_miss_latency::total      3388500                       # number of ReadReq MSHR miss cycles
system.cpu.dcache.ReadReq_mshr_miss_rate::.cpu.data     0.029412                       # mshr miss rate for ReadReq accesses
system.cpu.dcache.ReadReq_mshr_miss_rate::total     0.029412                       # mshr miss rate for ReadReq accesses
system.cpu.dcache.ReadReq_avg_mshr_miss_latency::.cpu.data 51340.909091                       # average ReadReq mshr miss latency
system.cpu.dcache.ReadReq_avg_mshr_miss_latency::total 51340.909091                       # average ReadReq mshr miss latency
system.cpu.dcache.WriteReq_hits::.cpu.data         2280                       # number of WriteReq hits
system.cpu.dcache.WriteReq_hits::total           2280                       # number of WriteReq hits
system.cpu.dcache.WriteReq_misses::.cpu.data           59                       # number of WriteReq misses
system.cpu.dcache.WriteReq_misses::total           59                       # number of WriteReq misses
system.cpu.dcache.WriteReq_miss_latency::.cpu.data      3132000                       # number of WriteReq miss cycles
system.cpu.dcache.WriteReq_miss_latency::total      3132000                       # number of WriteReq miss cycles
system.cpu.dcache.WriteReq_accesses::.cpu.data         2339                       # number of WriteReq accesses(hits+misses)
system.cpu.dcache.WriteReq_accesses::total         2339                       # number of WriteReq accesses(hits+misses)
system.cpu.dcache.WriteReq_miss_rate::.cpu.data     0.025224                       # miss rate for WriteReq accesses
system.cpu.dcache.WriteReq_miss_rate::total     0.025224                       # miss rate for WriteReq accesses
system.cpu.dcache.WriteReq_avg_miss_latency::.cpu.data 53084.745763                       # average WriteReq miss latency
system.cpu.dcache.WriteReq_avg_miss_latency::total 53084.745763                       # average WriteReq miss latency
system.cpu.dcache.WriteReq_mshr_misses::.cpu.data           59                       # number of WriteReq MSHR misses
system.cpu.dcache.WriteReq_mshr_misses::total           59                       # number of WriteReq MSHR misses
system.cpu.dcache.WriteReq_mshr_miss_latency::.cpu.data      3073000                       # number of WriteReq MSHR miss cycles
system.cpu.dcache.WriteReq_mshr_miss_latency::total      3073000                       # number of WriteReq MSHR miss cycles
system.cpu.dcache.WriteReq_mshr_miss_rate::.cpu.data     0.025224                       # mshr miss rate for WriteReq accesses
system.cpu.dcache.WriteReq_mshr_miss_rate::total     0.025224                       # mshr miss rate for WriteReq accesses
system.cpu.dcache.WriteReq_avg_mshr_miss_latency::.cpu.data 52084.745763                       # average WriteReq mshr miss latency
system.cpu.dcache.WriteReq_avg_mshr_miss_latency::total 52084.745763                       # average WriteReq mshr miss latency
system.cpu.dcache.SoftPFReq_hits::.cpu.data           16                       # number of SoftPFReq hits
system.cpu.dcache.SoftPFReq_hits::total            16                       # number of SoftPFReq hits
system.cpu.dcache.SoftPFReq_misses::.cpu.data            6                       # number of SoftPFReq misses
system.cpu.dcache.SoftPFReq_misses::total            6                       # number of SoftPFReq misses
system.cpu.dcache.SoftPFReq_accesses::.cpu.data           22                       # number of SoftPFReq accesses(hits+misses)
system.cpu.dcache.SoftPFReq_accesses::total           22                       # number of SoftPFReq accesses(hits+misses)
system.cpu.dcache.SoftPFReq_miss_rate::.cpu.data     0.272727                       # miss rate for SoftPFReq accesses
system.cpu.dcache.SoftPFReq_miss_rate::total     0.272727                       # miss rate for SoftPFReq accesses
system.cpu.dcache.SoftPFReq_mshr_misses::.cpu.data            5                       # number of SoftPFReq MSHR misses
system.cpu.dcache.SoftPFReq_mshr_misses::total            5                       # number of SoftPFReq MSHR misses
system.cpu.dcache.SoftPFReq_mshr_miss_latency::.cpu.data       329000                       # number of SoftPFReq MSHR miss cycles
system.cpu.dcache.SoftPFReq_mshr_miss_latency::total       329000                       # number of SoftPFReq MSHR miss cycles
system.cpu.dcache.SoftPFReq_mshr_miss_rate::.cpu.data     0.227273                       # mshr miss rate for SoftPFReq accesses
system.cpu.dcache.SoftPFReq_mshr_miss_rate::total     0.227273                       # mshr miss rate for SoftPFReq accesses
system.cpu.dcache.SoftPFReq_avg_mshr_miss_latency::.cpu.data        65800                       # average SoftPFReq mshr miss latency
system.cpu.dcache.SoftPFReq_avg_mshr_miss_latency::total        65800                       # average SoftPFReq mshr miss latency
system.cpu.dcache.LoadLockedReq_hits::.cpu.data           32                       # number of LoadLockedReq hits
system.cpu.dcache.LoadLockedReq_hits::total           32                       # number of LoadLockedReq hits
system.cpu.dcache.LoadLockedReq_misses::.cpu.data            1                       # number of LoadLockedReq misses
system.cpu.dcache.LoadLockedReq_misses::total            1                       # number of LoadLockedReq misses
system.cpu.dcache.LoadLockedReq_miss_latency::.cpu.data        76000                       # number of LoadLockedReq miss cycles
system.cpu.dcache.LoadLockedReq_miss_latency::total        76000                       # number of LoadLockedReq miss cycles
system.cpu.dcache.LoadLockedReq_accesses::.cpu.data           33                       # number of LoadLockedReq accesses(hits+misses)
system.cpu.dcache.LoadLockedReq_accesses::total           33                       # number of LoadLockedReq accesses(hits+misses)
system.cpu.dcache.LoadLockedReq_miss_rate::.cpu.data     0.030303                       # miss rate for LoadLockedReq accesses
system.cpu.dcache.LoadLockedReq_miss_rate::total     0.030303                       # miss rate for LoadLockedReq accesses
system.cpu.dcache.LoadLockedReq_avg_miss_latency::.cpu.data        76000                       # average LoadLockedReq miss latency
system.cpu.dcache.LoadLockedReq_avg_miss_latency::total        76000                       # average LoadLockedReq miss latency
system.cpu.dcache.LoadLockedReq_mshr_misses::.cpu.data            1                       # number of LoadLockedReq MSHR misses
system.cpu.dcache.LoadLockedReq_mshr_misses::total            1                       # number of LoadLockedReq MSHR misses
system.cpu.dcache.LoadLockedReq_mshr_miss_latency::.cpu.data        75000                       # number of LoadLockedReq MSHR miss cycles
system.cpu.dcache.LoadLockedReq_mshr_miss_latency::total        75000                       # number of LoadLockedReq MSHR miss cycles
system.cpu.dcache.LoadLockedReq_mshr_miss_rate::.cpu.data     0.030303                       # mshr miss rate for LoadLockedReq accesses
system.cpu.dcache.LoadLockedReq_mshr_miss_rate::total     0.030303                       # mshr miss rate for LoadLockedReq accesses
system.cpu.dcache.LoadLockedReq_avg_mshr_miss_latency::.cpu.data        75000                       # average LoadLockedReq mshr miss latency
system.cpu.dcache.LoadLockedReq_avg_mshr_miss_latency::total        75000                       # average LoadLockedReq mshr miss latency
system.cpu.dcache.StoreCondReq_hits::.cpu.data           33                       # number of StoreCondReq hits
system.cpu.dcache.StoreCondReq_hits::total           33                       # number of StoreCondReq hits
system.cpu.dcache.StoreCondReq_accesses::.cpu.data           33                       # number of StoreCondReq accesses(hits+misses)
system.cpu.dcache.StoreCondReq_accesses::total           33                       # number of StoreCondReq accesses(hits+misses)
system.cpu.dcache.tags.pwrStateResidencyTicks::UNDEFINED     39281000                       # Cumulative time (in ticks) in various power states
system.cpu.dcache.tags.tagsinuse            89.124591                       # Cycle average of tags in use
system.cpu.dcache.tags.total_refs                4669                       # Total number of references to valid blocks.
system.cpu.dcache.tags.sampled_refs               131                       # Sample count of references to valid blocks.
system.cpu.dcache.tags.avg_refs             35.641221                       # Average number of references to valid blocks.
system.cpu.dcache.tags.warmup_cycle            142000                       # Cycle when the warmup percentage was hit.
system.cpu.dcache.tags.occ_blocks::.cpu.data    89.124591                       # Average occupied blocks per requestor
system.cpu.dcache.tags.occ_percent::.cpu.data     0.087036                       # Average percentage of cache occupancy
system.cpu.dcache.tags.occ_percent::total     0.087036                       # Average percentage of cache occupancy
system.cpu.dcache.tags.occ_task_id_blocks::1024          131                       # Occupied blocks per task id
system.cpu.dcache.tags.age_task_id_blocks_1024::0            6                       # Occupied blocks per task id
system.cpu.dcache.tags.age_task_id_blocks_1024::1          125                       # Occupied blocks per task id
system.cpu.dcache.tags.occ_task_id_percent::1024     0.127930                       # Percentage of cache occupancy per task id
system.cpu.dcache.tags.tag_accesses              9473                       # Number of tag accesses
system.cpu.dcache.tags.data_accesses             9473                       # Number of data accesses

---------- End Simulation Statistics   ----------
